15377690
 OpenBabel09242400493D

 40 41  0  0  1  0  0  0  0  0999 V2000
    0.2408   -1.9073   -1.0023 O   0  0  0  0  0  0  0  0  0  0  0  0
   -3.9624   -0.5593   -1.2051 O   0  0  0  0  0  0  0  0  0  0  0  0
   -4.0661    0.7235    0.6705 O   0  0  0  0  0  0  0  0  0  0  0  0
    1.3411    1.0040    0.8598 C   0  0  2  0  0  0  0  0  0  0  0  0
    0.3565   -0.1802    0.7103 C   0  0  1  0  0  0  0  0  0  0  0  0
   -1.0417    0.3559    0.3284 C   0  0  1  0  0  0  0  0  0  0  0  0
    1.4104    1.8448   -0.4493 C   0  0  1  0  0  0  0  0  0  0  0  0
   -0.9960    1.1682   -0.9694 C   0  0  0  0  0  0  0  0  0  0  0  0
    0.0053    2.3154   -0.8666 C   0  0  0  0  0  0  0  0  0  0  0  0
    2.6972    0.4688    1.3450 C   0  0  0  0  0  0  0  0  0  0  0  0
   -2.1327   -0.7149    0.2801 C   0  0  1  0  0  0  0  0  0  0  0  0
    0.9409   -1.2296   -0.2521 C   0  0  0  0  0  0  0  0  0  0  0  0
    2.3242    3.0681   -0.3183 C   0  0  0  0  0  0  0  0  0  0  0  0
    3.1919   -0.6935    0.5446 C   0  0  0  0  0  0  0  0  0  0  0  0
    2.4174   -1.4795   -0.2162 C   0  0  0  0  0  0  0  0  0  0  0  0
   -2.2001   -1.4771    1.5968 C   0  0  0  0  0  0  0  0  0  0  0  0
   -3.4788   -0.0922   -0.0253 C   0  0  0  0  0  0  0  0  0  0  0  0
    2.9522   -2.6152   -1.0307 C   0  0  0  0  0  0  0  0  0  0  0  0
    0.9614    1.6658    1.6519 H   0  0  0  0  0  0  0  0  0  0  0  0
    0.2932   -0.6738    1.6886 H   0  0  0  0  0  0  0  0  0  0  0  0
   -1.3305    1.0639    1.1214 H   0  0  0  0  0  0  0  0  0  0  0  0
    1.8094    1.2262   -1.2632 H   0  0  0  0  0  0  0  0  0  0  0  0
   -1.9740    1.6028   -1.2033 H   0  0  0  0  0  0  0  0  0  0  0  0
   -0.7295    0.5242   -1.8160 H   0  0  0  0  0  0  0  0  0  0  0  0
    0.0576    2.8296   -1.8341 H   0  0  0  0  0  0  0  0  0  0  0  0
   -0.3672    3.0504   -0.1410 H   0  0  0  0  0  0  0  0  0  0  0  0
    2.6082    0.1430    2.3894 H   0  0  0  0  0  0  0  0  0  0  0  0
    3.4529    1.2596    1.3432 H   0  0  0  0  0  0  0  0  0  0  0  0
   -1.9406   -1.4407   -0.5154 H   0  0  0  0  0  0  0  0  0  0  0  0
    3.3727    2.7757   -0.2123 H   0  0  0  0  0  0  0  0  0  0  0  0
    2.2596    3.6988   -1.2118 H   0  0  0  0  0  0  0  0  0  0  0  0
    2.0476    3.6798    0.5468 H   0  0  0  0  0  0  0  0  0  0  0  0
    4.2596   -0.8915    0.5990 H   0  0  0  0  0  0  0  0  0  0  0  0
   -1.3462   -2.1495    1.7223 H   0  0  0  0  0  0  0  0  0  0  0  0
   -3.1025   -2.0984    1.6361 H   0  0  0  0  0  0  0  0  0  0  0  0
   -2.2406   -0.7987    2.4563 H   0  0  0  0  0  0  0  0  0  0  0  0
    2.4910   -3.5587   -0.7211 H   0  0  0  0  0  0  0  0  0  0  0  0
    4.0363   -2.7239   -0.9200 H   0  0  0  0  0  0  0  0  0  0  0  0
    2.7416   -2.4559   -2.0932 H   0  0  0  0  0  0  0  0  0  0  0  0
   -4.8330   -0.1644   -1.4251 H   0  0  0  0  0  0  0  0  0  0  0  0
  1 12  2  0  0  0  0
  2 17  1  0  0  0  0
  2 40  1  0  0  0  0
  3 17  2  0  0  0  0
  4  5  1  0  0  0  0
  4  7  1  0  0  0  0
  4 10  1  0  0  0  0
  4 19  1  1  0  0  0
  5  6  1  0  0  0  0
  5 12  1  0  0  0  0
  5 20  1  1  0  0  0
  6  8  1  0  0  0  0
  6 11  1  0  0  0  0
  6 21  1  1  0  0  0
  7  9  1  0  0  0  0
  7 13  1  0  0  0  0
  7 22  1  6  0  0  0
  8  9  1  0  0  0  0
  8 23  1  0  0  0  0
  8 24  1  0  0  0  0
  9 25  1  0  0  0  0
  9 26  1  0  0  0  0
 10 14  1  0  0  0  0
 10 27  1  0  0  0  0
 10 28  1  0  0  0  0
 11 16  1  0  0  0  0
 11 17  1  0  0  0  0
 11 29  1  6  0  0  0
 12 15  1  0  0  0  0
 13 30  1  0  0  0  0
 13 31  1  0  0  0  0
 13 32  1  0  0  0  0
 14 15  2  0  0  0  0
 14 33  1  0  0  0  0
 15 18  1  0  0  0  0
 16 34  1  0  0  0  0
 16 35  1  0  0  0  0
 16 36  1  0  0  0  0
 18 37  1  0  0  0  0
 18 38  1  0  0  0  0
 18 39  1  0  0  0  0
M  END
>  <PUBCHEM_COMPOUND_CID>
15377690

>  <PUBCHEM_CONFORMER_RMSD>
0.6

>  <PUBCHEM_CONFORMER_DIVERSEORDER>
1
3
2

>  <PUBCHEM_MMFF94_PARTIAL_CHARGES>
13
1 -0.57
10 0.14
11 0.06
12 0.49
14 -0.29
15 -0.12
17 0.66
18 0.14
2 -0.65
3 -0.57
33 0.15
40 0.5
5 0.06

>  <PUBCHEM_EFFECTIVE_ROTOR_COUNT>
3

>  <PUBCHEM_PHARMACOPHORE_FEATURES>
7
1 1 acceptor
1 16 hydrophobe
1 2 acceptor
1 3 acceptor
3 2 3 17 anion
6 4 5 10 12 14 15 rings
6 4 5 6 7 8 9 rings

>  <PUBCHEM_HEAVY_ATOM_COUNT>
18

>  <PUBCHEM_ATOM_DEF_STEREO_COUNT>
5

>  <PUBCHEM_ATOM_UDEF_STEREO_COUNT>
0

>  <PUBCHEM_BOND_DEF_STEREO_COUNT>
0

>  <PUBCHEM_BOND_UDEF_STEREO_COUNT>
0

>  <PUBCHEM_ISOTOPIC_ATOM_COUNT>
0

>  <PUBCHEM_COMPONENT_COUNT>
1

>  <PUBCHEM_CACTVS_TAUTO_COUNT>
5

>  <PUBCHEM_CONFORMER_ID>
00EAA51A00000001

>  <PUBCHEM_MMFF94_ENERGY>
34.6455

>  <PUBCHEM_FEATURE_SELFOVERLAP>
35.64

>  <PUBCHEM_SHAPE_FINGERPRINT>
11578080 2 15477835513894719825
116883 192 18337669689893455213
12138202 78 18409169917514269068
12346645 6 18337669840333283524
12716301 132 17752748148432913273
13140716 1 18187086208308035163
14022347 108 17896046450892627865
14181834 199 18262232343214043484
14251717 144 18341885320827493415
14817 1 8063630726131754864
15501101 241 18201434740497972994
15848700 24 18338227180916666774
15848702 151 18271801281552748903
15881359 60 18050530123855026316
16945 1 18341622554638562330
17357779 13 18337943476883513404
17990270 104 18261961867653845955
18186145 218 18260261928763017123
20233049 118 17095510765098229587
20600515 1 17894916183146599604
20645477 70 18335129947351264343
20871999 31 18044946657880564276
21524375 3 17395584247381474336
22182313 1 18196074570179249740
22721475 48 18409730625462924960
2334 1 17898294054665715571
23402539 116 18190447277683343634
23419403 2 17770472297711099792
23557571 272 18191870029314460722
23559900 14 18115867383098198602
2748010 2 18124296234798856644
3286 77 17703774925568581515
576247 118 18191611677777137530
7364860 26 18338520845285227232
81228 2 18047763593770265120
84936 31 18060418032255879884
9709674 26 18409167740356337595

>  <PUBCHEM_SHAPE_MULTIPOLES>
352.82
5.77
2.81
1.26
4.62
0.97
-0.13
-1.39
-0.18
-2.53
0.91
0.07
-0.28
0.71

>  <PUBCHEM_SHAPE_SELFOVERLAP>
729.924

>  <PUBCHEM_SHAPE_VOLUME>
199.3

>  <PUBCHEM_COORDINATE_TYPE>
2
5
10

$$$$
1549018
 OpenBabel09242400493D

 28 28  0  0  0  0  0  0  0  0999 V2000
   -0.2818   -2.1456    0.1405 O   0  0  0  0  0  0  0  0  0  0  0  0
   -3.1098   -0.0269   -0.2036 C   0  0  0  0  0  0  0  0  0  0  0  0
   -1.9292    0.8431    0.1186 C   0  0  0  0  0  0  0  0  0  0  0  0
   -0.7761    0.1805    0.2791 C   0  0  0  0  0  0  0  0  0  0  0  0
   -2.5576   -1.4443   -0.2380 C   0  0  0  0  0  0  0  0  0  0  0  0
   -1.1041   -1.2437    0.0693 C   0  0  0  0  0  0  0  0  0  0  0  0
    0.5973    0.6351    0.5978 C   0  0  0  0  0  0  0  0  0  0  0  0
   -2.1473    2.3153    0.2251 C   0  0  0  0  0  0  0  0  0  0  0  0
    1.3699    1.0288   -0.6301 C   0  0  0  0  0  0  0  0  0  0  0  0
    2.5400    0.4784   -0.9873 C   0  0  0  0  0  0  0  0  0  0  0  0
    3.2268   -0.6019   -0.2052 C   0  0  0  0  0  0  0  0  0  0  0  0
    4.1718   -0.0189    0.8339 C   0  0  0  0  0  0  0  0  0  0  0  0
   -3.8889    0.0680    0.5604 H   0  0  0  0  0  0  0  0  0  0  0  0
   -3.5454    0.2436   -1.1715 H   0  0  0  0  0  0  0  0  0  0  0  0
   -2.6740   -1.8972   -1.2265 H   0  0  0  0  0  0  0  0  0  0  0  0
   -3.0202   -2.0746    0.5266 H   0  0  0  0  0  0  0  0  0  0  0  0
    1.0977   -0.1112    1.2201 H   0  0  0  0  0  0  0  0  0  0  0  0
    0.5396    1.5234    1.2404 H   0  0  0  0  0  0  0  0  0  0  0  0
   -2.5493    2.7072   -0.7147 H   0  0  0  0  0  0  0  0  0  0  0  0
   -1.2230    2.8585    0.4417 H   0  0  0  0  0  0  0  0  0  0  0  0
   -2.8605    2.5358    1.0256 H   0  0  0  0  0  0  0  0  0  0  0  0
    0.9612    1.8235   -1.2500 H   0  0  0  0  0  0  0  0  0  0  0  0
    3.0395    0.8438   -1.8806 H   0  0  0  0  0  0  0  0  0  0  0  0
    2.5228   -1.2973    0.2611 H   0  0  0  0  0  0  0  0  0  0  0  0
    3.8061   -1.2112   -0.9101 H   0  0  0  0  0  0  0  0  0  0  0  0
    3.6299    0.5691    1.5822 H   0  0  0  0  0  0  0  0  0  0  0  0
    4.9223    0.6294    0.3688 H   0  0  0  0  0  0  0  0  0  0  0  0
    4.6997   -0.8233    1.3561 H   0  0  0  0  0  0  0  0  0  0  0  0
  1  6  2  0  0  0  0
  2  3  1  0  0  0  0
  2  5  1  0  0  0  0
  2 13  1  0  0  0  0
  2 14  1  0  0  0  0
  3  4  2  0  0  0  0
  3  8  1  0  0  0  0
  4  6  1  0  0  0  0
  4  7  1  0  0  0  0
  5  6  1  0  0  0  0
  5 15  1  0  0  0  0
  5 16  1  0  0  0  0
  7  9  1  0  0  0  0
  7 17  1  0  0  0  0
  7 18  1  0  0  0  0
  8 19  1  0  0  0  0
  8 20  1  0  0  0  0
  8 21  1  0  0  0  0
  9 10  2  0  0  0  0
  9 22  1  0  0  0  0
 10 11  1  0  0  0  0
 10 23  1  0  0  0  0
 11 12  1  0  0  0  0
 11 24  1  0  0  0  0
 11 25  1  0  0  0  0
 12 26  1  0  0  0  0
 12 27  1  0  0  0  0
 12 28  1  0  0  0  0
M  END
>  <PUBCHEM_COMPOUND_CID>
1549018

>  <PUBCHEM_CONFORMER_RMSD>
0.6

>  <PUBCHEM_CONFORMER_DIVERSEORDER>
1
18
4
27
31
26
32
11
19
20
13
12
21
9
29
15
17
28
22
14
16
7
23
24
30
5
3
6
2
10
8
25

>  <PUBCHEM_MMFF94_PARTIAL_CHARGES>
13
1 -0.57
10 -0.29
11 0.14
2 0.14
22 0.15
23 0.15
3 -0.28
4 -0.12
5 0.06
6 0.49
7 0.28
8 0.14
9 -0.29

>  <PUBCHEM_EFFECTIVE_ROTOR_COUNT>
3.4

>  <PUBCHEM_PHARMACOPHORE_FEATURES>
3
1 1 acceptor
1 12 hydrophobe
5 2 3 4 5 6 rings

>  <PUBCHEM_HEAVY_ATOM_COUNT>
12

>  <PUBCHEM_ATOM_DEF_STEREO_COUNT>
0

>  <PUBCHEM_ATOM_UDEF_STEREO_COUNT>
0

>  <PUBCHEM_BOND_DEF_STEREO_COUNT>
1

>  <PUBCHEM_BOND_UDEF_STEREO_COUNT>
0

>  <PUBCHEM_ISOTOPIC_ATOM_COUNT>
0

>  <PUBCHEM_COMPONENT_COUNT>
1

>  <PUBCHEM_CACTVS_TAUTO_COUNT>
10

>  <PUBCHEM_CONFORMER_ID>
0017A2DA00000001

>  <PUBCHEM_MMFF94_ENERGY>
4.3988

>  <PUBCHEM_FEATURE_SELFOVERLAP>
15.223

>  <PUBCHEM_SHAPE_FINGERPRINT>
12500047 106 18341889641854697848
12716758 59 18342741792898258512
12932764 1 18338252547373591276
13024252 1 11674873420726789951
13296908 3 17346607352578496076
14144814 61 18334862722944276716
14325111 11 18410578366208198564
16945 1 18340216253407155711
20201158 50 17988648510074668086
20510252 161 18273217482214430536
20645476 183 17678194873516576614
20653085 51 16877938382234480125
21524375 3 18116718400634383265
23402539 116 18342446046098735829
23463225 33 18261110725621859042
23552423 10 17901111033304674773
23559900 14 18130505224643209394
23598291 2 17967824838240013428
2748010 2 18050865320462003999
369184 2 13614254654352264455
57812782 119 18131911567943444436
6992083 37 18113625551386532580

>  <PUBCHEM_SHAPE_MULTIPOLES>
241.09
5.98
1.89
0.84
4.99
0.03
-0.04
-0.13
0.3
-1.5
0.06
0.5
0.1
-0.29

>  <PUBCHEM_SHAPE_SELFOVERLAP>
480.171

>  <PUBCHEM_SHAPE_VOLUME>
145.3

>  <PUBCHEM_COORDINATE_TYPE>
2
5
10

$$$$
1549019
 OpenBabel09242400493D

 28 28  0  0  0  0  0  0  0  0999 V2000
   -0.4553    2.0583    0.8106 O   0  0  0  0  0  0  0  0  0  0  0  0
   -2.9038    0.1114   -0.8684 C   0  0  0  0  0  0  0  0  0  0  0  0
   -1.9232   -0.8373   -0.2417 C   0  0  0  0  0  0  0  0  0  0  0  0
   -0.9298   -0.2456    0.4346 C   0  0  0  0  0  0  0  0  0  0  0  0
   -2.4015    1.4992   -0.4986 C   0  0  0  0  0  0  0  0  0  0  0  0
   -1.1742    1.2053    0.3104 C   0  0  0  0  0  0  0  0  0  0  0  0
    0.2246   -0.7895    1.1869 C   0  0  0  0  0  0  0  0  0  0  0  0
   -2.1432   -2.3014   -0.4265 C   0  0  0  0  0  0  0  0  0  0  0  0
    1.4633   -0.8905    0.3413 C   0  0  0  0  0  0  0  0  0  0  0  0
    2.5958   -0.2150    0.5882 C   0  0  0  0  0  0  0  0  0  0  0  0
    3.8282   -0.3149   -0.2612 C   0  0  0  0  0  0  0  0  0  0  0  0
    3.8191    0.7199   -1.3755 C   0  0  0  0  0  0  0  0  0  0  0  0
   -2.9326   -0.0138   -1.9562 H   0  0  0  0  0  0  0  0  0  0  0  0
   -3.9143   -0.0526   -0.4786 H   0  0  0  0  0  0  0  0  0  0  0  0
   -3.1312    2.0424    0.1085 H   0  0  0  0  0  0  0  0  0  0  0  0
   -2.1365    2.0806   -1.3861 H   0  0  0  0  0  0  0  0  0  0  0  0
   -0.0099   -1.7908    1.5673 H   0  0  0  0  0  0  0  0  0  0  0  0
    0.4062   -0.1776    2.0793 H   0  0  0  0  0  0  0  0  0  0  0  0
   -3.1016   -2.5988    0.0106 H   0  0  0  0  0  0  0  0  0  0  0  0
   -1.3598   -2.9031    0.0431 H   0  0  0  0  0  0  0  0  0  0  0  0
   -2.1566   -2.5503   -1.4924 H   0  0  0  0  0  0  0  0  0  0  0  0
    1.4248   -1.5667   -0.5100 H   0  0  0  0  0  0  0  0  0  0  0  0
    2.6387    0.4677    1.4330 H   0  0  0  0  0  0  0  0  0  0  0  0
    4.7115   -0.1764    0.3725 H   0  0  0  0  0  0  0  0  0  0  0  0
    3.9103   -1.3176   -0.6975 H   0  0  0  0  0  0  0  0  0  0  0  0
    3.7657    1.7365   -0.9712 H   0  0  0  0  0  0  0  0  0  0  0  0
    2.9661    0.5747   -2.0471 H   0  0  0  0  0  0  0  0  0  0  0  0
    4.7342    0.6409   -1.9711 H   0  0  0  0  0  0  0  0  0  0  0  0
  1  6  2  0  0  0  0
  2  3  1  0  0  0  0
  2  5  1  0  0  0  0
  2 13  1  0  0  0  0
  2 14  1  0  0  0  0
  3  4  2  0  0  0  0
  3  8  1  0  0  0  0
  4  6  1  0  0  0  0
  4  7  1  0  0  0  0
  5  6  1  0  0  0  0
  5 15  1  0  0  0  0
  5 16  1  0  0  0  0
  7  9  1  0  0  0  0
  7 17  1  0  0  0  0
  7 18  1  0  0  0  0
  8 19  1  0  0  0  0
  8 20  1  0  0  0  0
  8 21  1  0  0  0  0
  9 10  2  0  0  0  0
  9 22  1  0  0  0  0
 10 11  1  0  0  0  0
 10 23  1  0  0  0  0
 11 12  1  0  0  0  0
 11 24  1  0  0  0  0
 11 25  1  0  0  0  0
 12 26  1  0  0  0  0
 12 27  1  0  0  0  0
 12 28  1  0  0  0  0
M  END
>  <PUBCHEM_COMPOUND_CID>
1549019

>  <PUBCHEM_CONFORMER_RMSD>
0.6

>  <PUBCHEM_CONFORMER_DIVERSEORDER>
4
20
5
21
15
10
12
13
2
16
6
8
1
22
7
14
18
3
11
9
19
17

>  <PUBCHEM_MMFF94_PARTIAL_CHARGES>
13
1 -0.57
10 -0.29
11 0.14
2 0.14
22 0.15
23 0.15
3 -0.28
4 -0.12
5 0.06
6 0.49
7 0.28
8 0.14
9 -0.29

>  <PUBCHEM_EFFECTIVE_ROTOR_COUNT>
3.4

>  <PUBCHEM_PHARMACOPHORE_FEATURES>
3
1 1 acceptor
1 12 hydrophobe
5 2 3 4 5 6 rings

>  <PUBCHEM_HEAVY_ATOM_COUNT>
12

>  <PUBCHEM_ATOM_DEF_STEREO_COUNT>
0

>  <PUBCHEM_ATOM_UDEF_STEREO_COUNT>
0

>  <PUBCHEM_BOND_DEF_STEREO_COUNT>
1

>  <PUBCHEM_BOND_UDEF_STEREO_COUNT>
0

>  <PUBCHEM_ISOTOPIC_ATOM_COUNT>
0

>  <PUBCHEM_COMPONENT_COUNT>
1

>  <PUBCHEM_CACTVS_TAUTO_COUNT>
10

>  <PUBCHEM_CONFORMER_ID>
0017A2DB00000004

>  <PUBCHEM_MMFF94_ENERGY>
2.5123

>  <PUBCHEM_FEATURE_SELFOVERLAP>
15.223

>  <PUBCHEM_SHAPE_FINGERPRINT>
11127187 94 18343579663840165719
11137873 295 15554176861142721348
12162725 195 18113337514158332926
12897270 3 18272363170480436490
12932764 1 18342175574786110954
13024252 1 17022908947512541587
14123260 362 17386307462030455030
15669948 3 18410282614602193802
15775835 57 17894915092335682892
16945 1 18339343215658034041
18534176 82 18273213084162605359
19765921 60 17749382642039720777
20300324 65 18339932601435946476
20361792 2 14261343640072986666
20645476 183 18187918414061919447
20653085 51 17823138917144439498
20828058 34 18335140856357257866
20871999 31 18340480162273925423
22213442 358 18127965519363852170
22802520 49 17988926626381788730
228727 97 18335136479511315986
23419403 2 14927071714474762921
23557571 272 18130783516616637376
23559900 14 18201145573984077682
2748010 2 17978766224387229251
369184 2 14996283574392496993
5262128 65 18057907855979502260
528716 315 18412265055567965910
84936 31 16198441381637921920

>  <PUBCHEM_SHAPE_MULTIPOLES>
241.09
5.99
1.88
1.1
6.19
0.03
0.07
-0.35
2.57
-1.45
0.02
0.39
-0.1
-0.58

>  <PUBCHEM_SHAPE_SELFOVERLAP>
479.071

>  <PUBCHEM_SHAPE_VOLUME>
145.8

>  <PUBCHEM_COORDINATE_TYPE>
2
5
10

$$$$
15929152
 OpenBabel09242400493D

 44 45  0  0  1  0  0  0  0  0999 V2000
    1.9860    0.6558   -0.5766 O   0  0  0  0  0  0  0  0  0  0  0  0
    0.5389   -1.1178   -1.0280 O   0  0  0  0  0  0  0  0  0  0  0  0
    5.1155   -1.9078    0.1314 O   0  0  0  0  0  0  0  0  0  0  0  0
    5.2671    0.8316    1.0414 O   0  0  0  0  0  0  0  0  0  0  0  0
    2.3385   -2.8842    0.2564 O   0  0  0  0  0  0  0  0  0  0  0  0
    2.0593    3.3569   -0.0719 O   0  0  0  0  0  0  0  0  0  0  0  0
   -2.7935    2.1315   -0.0125 O   0  0  0  0  0  0  0  0  0  0  0  0
   -3.8286   -2.5492    0.2248 O   0  0  0  0  0  0  0  0  0  0  0  0
   -5.0170    0.2492    1.7174 O   0  0  0  0  0  0  0  0  0  0  0  0
    3.9742   -1.1248    0.4845 C   0  0  1  0  0  0  0  0  0  0  0  0
    4.2780    0.3342    0.1438 C   0  0  1  0  0  0  0  0  0  0  0  0
    2.7529   -1.6297   -0.2840 C   0  0  2  0  0  0  0  0  0  0  0  0
    3.0157    1.1924    0.2559 C   0  0  1  0  0  0  0  0  0  0  0  0
    1.5834   -0.6514   -0.1745 C   0  0  1  0  0  0  0  0  0  0  0  0
    3.2675    2.6286   -0.1921 C   0  0  0  0  0  0  0  0  0  0  0  0
   -0.7409   -0.8157   -0.6508 C   0  0  0  0  0  0  0  0  0  0  0  0
   -1.1265    0.5150   -0.5201 C   0  0  0  0  0  0  0  0  0  0  0  0
   -1.6475   -1.8410   -0.4008 C   0  0  0  0  0  0  0  0  0  0  0  0
   -2.4316    0.8231   -0.1356 C   0  0  0  0  0  0  0  0  0  0  0  0
   -2.9525   -1.5330   -0.0164 C   0  0  0  0  0  0  0  0  0  0  0  0
   -3.3445   -0.2009    0.1161 C   0  0  0  0  0  0  0  0  0  0  0  0
   -4.7092    0.1211    0.5178 C   0  0  0  0  0  0  0  0  0  0  0  0
   -5.7924    0.3073   -0.5361 C   0  0  0  0  0  0  0  0  0  0  0  0
   -1.7930    3.1088   -0.2904 C   0  0  0  0  0  0  0  0  0  0  0  0
    3.8314   -1.2550    1.5643 H   0  0  0  0  0  0  0  0  0  0  0  0
    4.6953    0.3926   -0.8690 H   0  0  0  0  0  0  0  0  0  0  0  0
    3.0119   -1.8071   -1.3346 H   0  0  0  0  0  0  0  0  0  0  0  0
    2.6478    1.2199    1.2907 H   0  0  0  0  0  0  0  0  0  0  0  0
    1.2193   -0.6222    0.8633 H   0  0  0  0  0  0  0  0  0  0  0  0
    3.5821    2.6730   -1.2400 H   0  0  0  0  0  0  0  0  0  0  0  0
    4.0270    3.1174    0.4248 H   0  0  0  0  0  0  0  0  0  0  0  0
    5.8752   -1.5540    0.6249 H   0  0  0  0  0  0  0  0  0  0  0  0
    4.9029    0.7906    1.9422 H   0  0  0  0  0  0  0  0  0  0  0  0
    2.1016   -2.7474    1.1896 H   0  0  0  0  0  0  0  0  0  0  0  0
    1.3996    2.9268   -0.6422 H   0  0  0  0  0  0  0  0  0  0  0  0
   -0.3892    1.2719   -0.7524 H   0  0  0  0  0  0  0  0  0  0  0  0
   -1.3395   -2.8783   -0.5042 H   0  0  0  0  0  0  0  0  0  0  0  0
   -4.6903   -2.1995    0.5027 H   0  0  0  0  0  0  0  0  0  0  0  0
   -6.5850   -0.4267   -0.3702 H   0  0  0  0  0  0  0  0  0  0  0  0
   -5.3805    0.1594   -1.5383 H   0  0  0  0  0  0  0  0  0  0  0  0
   -6.1908    1.3226   -0.4659 H   0  0  0  0  0  0  0  0  0  0  0  0
   -1.4677    3.0706   -1.3357 H   0  0  0  0  0  0  0  0  0  0  0  0
   -0.9563    3.0420    0.4134 H   0  0  0  0  0  0  0  0  0  0  0  0
   -2.2535    4.0909   -0.1397 H   0  0  0  0  0  0  0  0  0  0  0  0
  1 13  1  0  0  0  0
  1 14  1  0  0  0  0
  2 14  1  0  0  0  0
  2 16  1  0  0  0  0
  3 10  1  0  0  0  0
  3 32  1  0  0  0  0
  4 11  1  0  0  0  0
  4 33  1  0  0  0  0
  5 12  1  0  0  0  0
  5 34  1  0  0  0  0
  6 15  1  0  0  0  0
  6 35  1  0  0  0  0
  7 19  1  0  0  0  0
  7 24  1  0  0  0  0
  8 20  1  0  0  0  0
  8 38  1  0  0  0  0
  9 22  2  0  0  0  0
 10 11  1  0  0  0  0
 10 12  1  0  0  0  0
 10 25  1  1  0  0  0
 11 13  1  0  0  0  0
 11 26  1  6  0  0  0
 12 14  1  0  0  0  0
 12 27  1  6  0  0  0
 13 15  1  0  0  0  0
 13 28  1  1  0  0  0
 14 29  1  1  0  0  0
 15 30  1  0  0  0  0
 15 31  1  0  0  0  0
 16 17  1  0  0  0  0
 16 18  2  0  0  0  0
 17 19  2  0  0  0  0
 17 36  1  0  0  0  0
 18 20  1  0  0  0  0
 18 37  1  0  0  0  0
 19 21  1  0  0  0  0
 20 21  2  0  0  0  0
 21 22  1  0  0  0  0
 22 23  1  0  0  0  0
 23 39  1  0  0  0  0
 23 40  1  0  0  0  0
 23 41  1  0  0  0  0
 24 42  1  0  0  0  0
 24 43  1  0  0  0  0
 24 44  1  0  0  0  0
M  END
>  <PUBCHEM_COMPOUND_CID>
15929152

>  <PUBCHEM_CONFORMER_RMSD>
0.8

>  <PUBCHEM_CONFORMER_DIVERSEORDER>
1
164
47
54
215
96
127
227
200
159
69
170
65
175
110
23
40
185
178
94
90
173
166
55
207
14
162
52
142
211
46
118
111
49
88
119
203
77
87
43
44
78
228
62
184
117
136
194
8
17
146
148
100
223
129
198
34
66
104
231
186
133
221
99
12
145
196
109
219
182
155
153
84
229
11
224
113
97
222
115
225
230
190
189
108
216
201
91
187
206
81
210
80
83
26
140
176
120
183
10
48
64
114
204
4
171
181
134
95
226
71
143
27
192
63
154
82
121
58
144
214
177
220
197
9
212
172
106
13
135
191
179
61
202
169
193
122
72
131
70
217
107
25
137
218
33
205
125
98
163
208
19
79
112
29
158
42
161
15
45
35
68
209
160
2
199
5
67
147
22
93
213
32
37
3
102
50
156
149
18
86
188
132
73
16
30
130
232
74
139
24
75
128
76
174
7
165
51
105
157
92
124
6
89
20
123
85
53
116
21
36
126
28
195
31
180
39
150
38
167
60
141
151
41
168
56
152
101
103
138
57
59

>  <PUBCHEM_MMFF94_PARTIAL_CHARGES>
31
1 -0.56
10 0.28
11 0.28
12 0.28
13 0.28
14 0.56
15 0.28
16 0.08
17 -0.15
18 -0.15
19 0.08
2 -0.36
20 0.08
21 0.09
22 0.42
23 0.06
24 0.28
3 -0.68
32 0.4
33 0.4
34 0.4
35 0.4
36 0.15
37 0.15
38 0.45
4 -0.68
5 -0.68
6 -0.68
7 -0.36
8 -0.53
9 -0.57

>  <PUBCHEM_EFFECTIVE_ROTOR_COUNT>
6.2

>  <PUBCHEM_PHARMACOPHORE_FEATURES>
15
1 1 acceptor
1 2 acceptor
1 3 acceptor
1 3 donor
1 4 acceptor
1 4 donor
1 5 acceptor
1 5 donor
1 6 acceptor
1 6 donor
1 7 acceptor
1 8 donor
1 9 acceptor
6 1 10 11 12 13 14 rings
6 16 17 18 19 20 21 rings

>  <PUBCHEM_HEAVY_ATOM_COUNT>
24

>  <PUBCHEM_ATOM_DEF_STEREO_COUNT>
5

>  <PUBCHEM_ATOM_UDEF_STEREO_COUNT>
0

>  <PUBCHEM_BOND_DEF_STEREO_COUNT>
0

>  <PUBCHEM_BOND_UDEF_STEREO_COUNT>
0

>  <PUBCHEM_ISOTOPIC_ATOM_COUNT>
0

>  <PUBCHEM_COMPONENT_COUNT>
1

>  <PUBCHEM_CACTVS_TAUTO_COUNT>
9

>  <PUBCHEM_CONFORMER_ID>
00F30F4000000001

>  <PUBCHEM_MMFF94_ENERGY>
89.5718

>  <PUBCHEM_FEATURE_SELFOVERLAP>
76.189

>  <PUBCHEM_SHAPE_FINGERPRINT>
10366900 7 18041291984261572482
11045977 3 18113904870389718499
12107183 9 17616246988242985794
12251169 10 18410575063220177039
12403260 363 18341609274853007629
12403814 3 18342174454094792053
12507560 40 18337105670571811380
12633257 1 18341902870011026347
13140716 1 18195526115192085928
13533116 47 18115585933596029355
13583140 156 18115015304177383063
13675066 3 17822016415174114303
14341114 176 18409733945678340576
14790565 3 17687473776650697644
14866123 147 16465864135868591658
15163728 17 14690915076956580433
15196674 1 18339080513840981749
17492 89 18409728499702786762
1813 80 16950286182933410518
19050596 39 18409449223432209983
20715895 44 18267583516653051725
21033648 29 17968079916189818157
21065198 57 18410012143389698255
21065199 12 18411416194227027290
21267235 1 18339085887103934662
21652331 79 18411698781315164653
21792934 111 18409167693686749473
21859007 373 17605538978134815125
23227448 37 18413386553492039535
23402539 116 18341324514590241255
23559900 14 18410851074977134595
350125 39 18409450293290575468
351380 180 18410290307125568981
3545911 37 18411418401634242374
3680242 22 18341060635461734457
392239 28 18187373163752920451
4214541 1 18338233769380551062
474 4 18410572937501340378
5104073 3 18411139181541996355
5283173 99 18188755185945730741
59755656 215 18337110073114061790
7097593 13 18190174594631665226
9709674 26 18412547574290782199

>  <PUBCHEM_SHAPE_MULTIPOLES>
441.08
11.58
3.2
0.86
1.51
1.45
-0.15
-0.55
-2.77
-1.47
0.16
0.41
0
0.03

>  <PUBCHEM_SHAPE_SELFOVERLAP>
925.752

>  <PUBCHEM_SHAPE_VOLUME>
247

>  <PUBCHEM_COORDINATE_TYPE>
2
5
10

$$$$
1711945
 OpenBabel09242400493D

 49 48  0  0  0  0  0  0  0  0999 V2000
    4.8251    0.3711    0.4728 O   0  0  0  0  0  0  0  0  0  0  0  0
   -0.8061   -3.1956    0.0343 C   0  0  0  0  0  0  0  0  0  0  0  0
   -2.1714   -2.5013   -0.0777 C   0  0  0  0  0  0  0  0  0  0  0  0
   -2.7874    1.0061   -1.8236 C   0  0  0  0  0  0  0  0  0  0  0  0
   -2.9124   -0.1933   -0.9100 C   0  0  0  0  0  0  0  0  0  0  0  0
    0.3100   -2.3134    0.5656 C   0  0  0  0  0  0  0  0  0  0  0  0
   -2.1404   -1.2957   -0.9772 C   0  0  0  0  0  0  0  0  0  0  0  0
   -2.3958    2.2799   -1.0644 C   0  0  0  0  0  0  0  0  0  0  0  0
    1.3887   -2.0612   -0.2018 C   0  0  0  0  0  0  0  0  0  0  0  0
    2.6230   -1.2745    0.1466 C   0  0  0  0  0  0  0  0  0  0  0  0
   -3.9602   -0.0712    0.1670 C   0  0  0  0  0  0  0  0  0  0  0  0
    0.1220   -1.8314    1.9777 C   0  0  0  0  0  0  0  0  0  0  0  0
    2.8931   -0.1474   -0.8463 C   0  0  0  0  0  0  0  0  0  0  0  0
   -1.1227    2.0744   -0.2905 C   0  0  0  0  0  0  0  0  0  0  0  0
   -0.9245    2.1842    1.0368 C   0  0  0  0  0  0  0  0  0  0  0  0
    4.1262    0.6614   -0.4977 C   0  0  0  0  0  0  0  0  0  0  0  0
    0.4439    1.9514    1.6219 C   0  0  0  0  0  0  0  0  0  0  0  0
   -1.9773    2.5269    2.0516 C   0  0  0  0  0  0  0  0  0  0  0  0
    4.4662    1.8297   -1.3851 C   0  0  0  0  0  0  0  0  0  0  0  0
   -0.9068   -4.0655    0.6964 H   0  0  0  0  0  0  0  0  0  0  0  0
   -0.5389   -3.6053   -0.9492 H   0  0  0  0  0  0  0  0  0  0  0  0
   -2.8855   -3.2223   -0.4939 H   0  0  0  0  0  0  0  0  0  0  0  0
   -2.5248   -2.2393    0.9253 H   0  0  0  0  0  0  0  0  0  0  0  0
   -3.7393    1.1677   -2.3438 H   0  0  0  0  0  0  0  0  0  0  0  0
   -2.0424    0.8073   -2.6053 H   0  0  0  0  0  0  0  0  0  0  0  0
   -1.4150   -1.3389   -1.7889 H   0  0  0  0  0  0  0  0  0  0  0  0
   -3.2254    2.6080   -0.4330 H   0  0  0  0  0  0  0  0  0  0  0  0
   -2.2318    3.0862   -1.7895 H   0  0  0  0  0  0  0  0  0  0  0  0
    1.4120   -2.4938   -1.2018 H   0  0  0  0  0  0  0  0  0  0  0  0
    2.5699   -0.8551    1.1549 H   0  0  0  0  0  0  0  0  0  0  0  0
    3.4745   -1.9668    0.1505 H   0  0  0  0  0  0  0  0  0  0  0  0
   -4.3852   -1.0410    0.4448 H   0  0  0  0  0  0  0  0  0  0  0  0
   -3.5490    0.3942    1.0648 H   0  0  0  0  0  0  0  0  0  0  0  0
   -4.8027    0.5359   -0.1826 H   0  0  0  0  0  0  0  0  0  0  0  0
   -0.1300   -2.6738    2.6311 H   0  0  0  0  0  0  0  0  0  0  0  0
    1.0107   -1.3622    2.4029 H   0  0  0  0  0  0  0  0  0  0  0  0
   -0.6938   -1.1039    2.0279 H   0  0  0  0  0  0  0  0  0  0  0  0
    2.0386    0.5349   -0.8912 H   0  0  0  0  0  0  0  0  0  0  0  0
    3.0452   -0.5629   -1.8496 H   0  0  0  0  0  0  0  0  0  0  0  0
   -0.2631    1.8244   -0.9121 H   0  0  0  0  0  0  0  0  0  0  0  0
    0.7913    2.8553    2.1337 H   0  0  0  0  0  0  0  0  0  0  0  0
    0.4151    1.1358    2.3500 H   0  0  0  0  0  0  0  0  0  0  0  0
    1.1889    1.7003    0.8637 H   0  0  0  0  0  0  0  0  0  0  0  0
   -2.0972    1.7014    2.7612 H   0  0  0  0  0  0  0  0  0  0  0  0
   -2.9574    2.7349    1.6194 H   0  0  0  0  0  0  0  0  0  0  0  0
   -1.6790    3.4190    2.6127 H   0  0  0  0  0  0  0  0  0  0  0  0
    3.6446    2.5499   -1.3705 H   0  0  0  0  0  0  0  0  0  0  0  0
    5.3732    2.3194   -1.0201 H   0  0  0  0  0  0  0  0  0  0  0  0
    4.6400    1.4758   -2.4042 H   0  0  0  0  0  0  0  0  0  0  0  0
  1 16  2  0  0  0  0
  2  3  1  0  0  0  0
  2  6  1  0  0  0  0
  2 20  1  0  0  0  0
  2 21  1  0  0  0  0
  3  7  1  0  0  0  0
  3 22  1  0  0  0  0
  3 23  1  0  0  0  0
  4  5  1  0  0  0  0
  4  8  1  0  0  0  0
  4 24  1  0  0  0  0
  4 25  1  0  0  0  0
  5  7  2  0  0  0  0
  5 11  1  0  0  0  0
  6  9  2  0  0  0  0
  6 12  1  0  0  0  0
  7 26  1  0  0  0  0
  8 14  1  0  0  0  0
  8 27  1  0  0  0  0
  8 28  1  0  0  0  0
  9 10  1  0  0  0  0
  9 29  1  0  0  0  0
 10 13  1  0  0  0  0
 10 30  1  0  0  0  0
 10 31  1  0  0  0  0
 11 32  1  0  0  0  0
 11 33  1  0  0  0  0
 11 34  1  0  0  0  0
 12 35  1  0  0  0  0
 12 36  1  0  0  0  0
 12 37  1  0  0  0  0
 13 16  1  0  0  0  0
 13 38  1  0  0  0  0
 13 39  1  0  0  0  0
 14 15  2  0  0  0  0
 14 40  1  0  0  0  0
 15 17  1  0  0  0  0
 15 18  1  0  0  0  0
 16 19  1  0  0  0  0
 17 41  1  0  0  0  0
 17 42  1  0  0  0  0
 17 43  1  0  0  0  0
 18 44  1  0  0  0  0
 18 45  1  0  0  0  0
 18 46  1  0  0  0  0
 19 47  1  0  0  0  0
 19 48  1  0  0  0  0
 19 49  1  0  0  0  0
M  END
>  <PUBCHEM_COMPOUND_CID>
1711945

>  <PUBCHEM_CONFORMER_RMSD>
1

>  <PUBCHEM_CONFORMER_DIVERSEORDER>
21
9
42
302
333
213
131
460
81
431
64
355
178
33
203
394
48
232
277
202
263
261
292
285
260
63
382
144
435
418
454
159
80
455
35
201
365
138
451
395
256
147
224
357
30
348
91
373
458
17
237
188
380
227
50
265
319
211
51
250
422
47
450
300
174
461
318
37
410
12
210
44
419
92
150
169
335
340
268
358
262
329
286
239
61
378
272
214
107
27
298
259
220
459
114
408
118
401
77
332
24
325
372
88
119
396
85
347
370
387
440
99
161
2
399
46
177
276
251
73
234
127
79
328
52
322
426
253
157
76
388
427
168
240
226
449
369
389
386
59
403
134
20
313
363
221
423
23
443
65
305
34
29
186
136
374
98
317
364
78
62
346
294
209
411
255
158
116
248
175
391
96
197
170
342
397
283
269
433
109
398
132
229
412
315
366
444
368
90
163
143
238
284
362
41
230
400
252
94
196
439
303
190
405
181
402
8
456
28
351
225
60
273
36
320
417
441
271
173
215
113
381
129
137
184
26
75
22
176
192
167
149
415
345
95
457
241
448
406
344
54
438
336
103
135
343
16
242
430
334
233
442
97
327
104
445
290
304
359
453
306
212
339
5
337
133
106
409
246
275
222
198
413
280
223
117
288
420
392
189
218
297
446
416
112
70
187
43
191
194
123
208
375
349
180
384
437
326
249
56
40
152
110
39
356
432
141
145
274
165
330
296
205
385
102
164
84
1
299
83
293
207
206
155
38
244
11
367
231
71
258
82
407
219
182
434
185
199
321
108
193
72
311
148
452
128
10
154
338
162
257
295
436
13
331
235
6
228
18
55
200
421
424
245
323
289
379
291
86
361
120
171
428
57
404
236
324
243
287
68
89
111
352
58
267
130
309
101
216
160
301
270
153
121
146
393
142
281
383
25
414
4
105
15
49
390
266
316
264
371
312
354
217
14
353
447
53
204
282
31
100
140
195
125
151
307
139
19
429
308
172
360
124
278
126
3
32
66
74
183
279
376
156
314
254
67
122
87
341
425
7
247
377
93
45
179
310
115
69
350
166

>  <PUBCHEM_MMFF94_PARTIAL_CHARGES>
22
1 -0.57
10 0.14
11 0.14
12 0.14
13 0.06
14 -0.29
15 -0.28
16 0.45
17 0.14
18 0.14
19 0.06
2 0.14
26 0.15
29 0.15
3 0.14
4 0.14
40 0.15
5 -0.28
6 -0.28
7 -0.29
8 0.14
9 -0.29

>  <PUBCHEM_EFFECTIVE_ROTOR_COUNT>
9

>  <PUBCHEM_PHARMACOPHORE_FEATURES>
6
1 1 acceptor
1 11 hydrophobe
1 12 hydrophobe
3 15 17 18 hydrophobe
4 2 3 6 7 hydrophobe
4 4 5 8 14 hydrophobe

>  <PUBCHEM_HEAVY_ATOM_COUNT>
19

>  <PUBCHEM_ATOM_DEF_STEREO_COUNT>
0

>  <PUBCHEM_ATOM_UDEF_STEREO_COUNT>
0

>  <PUBCHEM_BOND_DEF_STEREO_COUNT>
2

>  <PUBCHEM_BOND_UDEF_STEREO_COUNT>
0

>  <PUBCHEM_ISOTOPIC_ATOM_COUNT>
0

>  <PUBCHEM_COMPONENT_COUNT>
1

>  <PUBCHEM_CACTVS_TAUTO_COUNT>
3

>  <PUBCHEM_CONFORMER_ID>
001A1F4900000015

>  <PUBCHEM_MMFF94_ENERGY>
16.2005

>  <PUBCHEM_FEATURE_SELFOVERLAP>
30.491

>  <PUBCHEM_SHAPE_FINGERPRINT>
11370993 70 18188195503676386116
12054548 360 18196930200188680374
121448 382 18335697239427061720
12788726 201 17559956511523370249
13583140 156 17167869621544185544
13899415 154 18202558467968969877
14123250 116 18200604579117587192
14251740 79 18410299107861705246
14251745 187 18051964007292665184
14251757 17 18198892798648495744
14468879 13 17387694890833243349
14787075 74 18335982060283905863
15848702 105 18334287656629917002
17357779 13 17631179756845351856
17492 54 18335692892883384367
19765921 60 18041270011098512787
20510252 161 18335986457818915350
20765182 40 18341882044447889744
21141583 151 18272088301231862334
22749437 52 18336540517616671878
23352939 185 18055360390437987571
23419403 2 17200788088814578794
23557571 272 18197515101989302158
3524813 1 18264762345207867031
353137 74 18337950091201889467
394222 165 17751063735373956827
44154327 71 17193756321413782801
469060 322 17678201453416724779
526903 126 18410009901332049044

>  <PUBCHEM_SHAPE_MULTIPOLES>
385.14
7.27
3.93
1.77
8.44
0.93
-0.53
-2.96
2.87
-1.41
-0.96
-0.61
-0.98
-0.84

>  <PUBCHEM_SHAPE_SELFOVERLAP>
728.299

>  <PUBCHEM_SHAPE_VOLUME>
238.3

>  <PUBCHEM_COORDINATE_TYPE>
2
5
10

$$$$
188323
 OpenBabel09242400493D

 37 39  0  0  0  0  0  0  0  0999 V2000
    0.5576    0.5862   -0.0436 O   0  0  0  0  0  0  0  0  0  0  0  0
   -4.9066   -0.2181   -0.1517 O   0  0  0  0  0  0  0  0  0  0  0  0
   -3.8479    2.3361   -0.1536 O   0  0  0  0  0  0  0  0  0  0  0  0
   -3.2589   -2.3932   -0.0940 O   0  0  0  0  0  0  0  0  0  0  0  0
   -0.7965   -3.2563   -0.0312 O   0  0  0  0  0  0  0  0  0  0  0  0
    6.8675    0.9640    0.1045 O   0  0  0  0  0  0  0  0  0  0  0  0
   -1.3216   -0.9527   -0.0690 C   0  0  0  0  0  0  0  0  0  0  0  0
   -0.7911    0.3363   -0.0703 C   0  0  0  0  0  0  0  0  0  0  0  0
   -2.7045   -1.1475   -0.0965 C   0  0  0  0  0  0  0  0  0  0  0  0
    1.4289   -0.4922   -0.0228 C   0  0  0  0  0  0  0  0  0  0  0  0
   -0.4006   -2.0990   -0.0372 C   0  0  0  0  0  0  0  0  0  0  0  0
   -1.6429    1.4407   -0.0986 C   0  0  0  0  0  0  0  0  0  0  0  0
   -3.5541   -0.0410   -0.1254 C   0  0  0  0  0  0  0  0  0  0  0  0
   -3.0247    1.2504   -0.1264 C   0  0  0  0  0  0  0  0  0  0  0  0
    1.0406   -1.7773   -0.0124 C   0  0  0  0  0  0  0  0  0  0  0  0
    2.8551   -0.1107    0.0100 C   0  0  0  0  0  0  0  0  0  0  0  0
    3.5666    0.0511   -1.1812 C   0  0  0  0  0  0  0  0  0  0  0  0
    3.4989    0.0905    1.2334 C   0  0  0  0  0  0  0  0  0  0  0  0
    4.9137    0.4116   -1.1493 C   0  0  0  0  0  0  0  0  0  0  0  0
    4.8460    0.4512    1.2654 C   0  0  0  0  0  0  0  0  0  0  0  0
    5.5534    0.6118    0.0740 C   0  0  0  0  0  0  0  0  0  0  0  0
   -5.6522    0.3380    0.9283 C   0  0  0  0  0  0  0  0  0  0  0  0
   -3.2269    3.6198   -0.1526 C   0  0  0  0  0  0  0  0  0  0  0  0
   -1.1698    2.4170   -0.0976 H   0  0  0  0  0  0  0  0  0  0  0  0
    1.7444   -2.6018    0.0119 H   0  0  0  0  0  0  0  0  0  0  0  0
    3.0818   -0.1004   -2.1428 H   0  0  0  0  0  0  0  0  0  0  0  0
    2.9609   -0.0300    2.1708 H   0  0  0  0  0  0  0  0  0  0  0  0
    5.4594    0.5355   -2.0806 H   0  0  0  0  0  0  0  0  0  0  0  0
    5.3327    0.6044    2.2248 H   0  0  0  0  0  0  0  0  0  0  0  0
   -2.5711   -3.0756   -0.0735 H   0  0  0  0  0  0  0  0  0  0  0  0
   -5.0579    0.4170    1.8455 H   0  0  0  0  0  0  0  0  0  0  0  0
   -6.5000   -0.3240    1.1281 H   0  0  0  0  0  0  0  0  0  0  0  0
   -6.0483    1.3174    0.6454 H   0  0  0  0  0  0  0  0  0  0  0  0
   -2.6601    3.7938    0.7685 H   0  0  0  0  0  0  0  0  0  0  0  0
   -4.0290    4.3651   -0.1765 H   0  0  0  0  0  0  0  0  0  0  0  0
   -2.6215    3.7767   -1.0519 H   0  0  0  0  0  0  0  0  0  0  0  0
    7.1463    1.0607    1.0313 H   0  0  0  0  0  0  0  0  0  0  0  0
  1  8  1  0  0  0  0
  1 10  1  0  0  0  0
  2 13  1  0  0  0  0
  2 22  1  0  0  0  0
  3 14  1  0  0  0  0
  3 23  1  0  0  0  0
  4  9  1  0  0  0  0
  4 30  1  0  0  0  0
  5 11  2  0  0  0  0
  6 21  1  0  0  0  0
  6 37  1  0  0  0  0
  7  8  1  0  0  0  0
  7  9  2  0  0  0  0
  7 11  1  0  0  0  0
  8 12  2  0  0  0  0
  9 13  1  0  0  0  0
 10 15  2  0  0  0  0
 10 16  1  0  0  0  0
 11 15  1  0  0  0  0
 12 14  1  0  0  0  0
 12 24  1  0  0  0  0
 13 14  2  0  0  0  0
 15 25  1  0  0  0  0
 16 17  2  0  0  0  0
 16 18  1  0  0  0  0
 17 19  1  0  0  0  0
 17 26  1  0  0  0  0
 18 20  2  0  0  0  0
 18 27  1  0  0  0  0
 19 21  2  0  0  0  0
 19 28  1  0  0  0  0
 20 21  1  0  0  0  0
 20 29  1  0  0  0  0
 22 31  1  0  0  0  0
 22 32  1  0  0  0  0
 22 33  1  0  0  0  0
 23 34  1  0  0  0  0
 23 35  1  0  0  0  0
 23 36  1  0  0  0  0
M  END
>  <PUBCHEM_COMPOUND_CID>
188323

>  <PUBCHEM_CONFORMER_RMSD>
0.6

>  <PUBCHEM_CONFORMER_DIVERSEORDER>
5
2
3
4
1

>  <PUBCHEM_MMFF94_PARTIAL_CHARGES>
31
1 -0.16
10 0.05
11 0.47
12 -0.15
13 0.08
14 0.08
15 -0.14
16 0.03
17 -0.15
18 -0.15
19 -0.15
2 -0.36
20 -0.15
21 0.08
22 0.28
23 0.28
24 0.15
25 0.15
26 0.15
27 0.15
28 0.15
29 0.15
3 -0.36
30 0.45
37 0.45
4 -0.53
5 -0.57
6 -0.53
7 0.09
8 0.08
9 0.08

>  <PUBCHEM_EFFECTIVE_ROTOR_COUNT>
3

>  <PUBCHEM_PHARMACOPHORE_FEATURES>
9
1 1 acceptor
1 2 acceptor
1 3 acceptor
1 4 donor
1 5 acceptor
1 6 donor
6 1 7 8 10 11 15 rings
6 16 17 18 19 20 21 rings
6 7 8 9 12 13 14 rings

>  <PUBCHEM_HEAVY_ATOM_COUNT>
23

>  <PUBCHEM_ATOM_DEF_STEREO_COUNT>
0

>  <PUBCHEM_ATOM_UDEF_STEREO_COUNT>
0

>  <PUBCHEM_BOND_DEF_STEREO_COUNT>
0

>  <PUBCHEM_BOND_UDEF_STEREO_COUNT>
0

>  <PUBCHEM_ISOTOPIC_ATOM_COUNT>
0

>  <PUBCHEM_COMPONENT_COUNT>
1

>  <PUBCHEM_CACTVS_TAUTO_COUNT>
21

>  <PUBCHEM_CONFORMER_ID>
0002DFA300000005

>  <PUBCHEM_MMFF94_ENERGY>
91.0679

>  <PUBCHEM_FEATURE_SELFOVERLAP>
45.705

>  <PUBCHEM_SHAPE_FINGERPRINT>
10319926 262 18269816741012237858
10411042 1 17834113426534155983
10498660 4 18341894030963563056
10670039 82 18261967236838006028
12107183 9 17829033326546823466
12173636 292 18411132507141524175
12236239 1 17749384910637059794
12390115 104 18200324203953438081
12403259 118 17749392524738973884
12403259 415 18269843033942160644
12403814 3 17458057166531053421
12596602 18 17095242531411059233
12788726 201 17463149164194916658
12838862 33 18337938044562533173
12916748 109 18409735053684989820
12969540 114 17203599376632218676
13140716 1 18264492969828950675
13540713 4 18047483227670336255
14251764 75 17838625453082553569
14508225 48 17911222134277265207
15042514 8 18264492965323772651
15196674 1 18338234847427963319
15483637 11 11565388996278196240
20510252 161 18271526386708691401
20645477 56 18272370888346763266
20645477 70 16702314416949191182
21033648 29 17631721781860389256
21033650 10 18191893179003881980
21279426 13 18199753531848791486
22122407 14 15936416619340586717
22224240 67 18412550916576782683
23366157 5 17826235081880742011
23402539 116 18340762745019824126
23557571 272 18271816695979611780
23559900 14 18272656702095030982
283562 15 18411698760678884025
2916195 48 18273207613002167208
34797466 226 17988091079608286316
350125 39 18409731772546877113
3545911 37 18343304760479720900
469060 322 18338255790364317305
495365 180 17418085504347691302
5104073 3 18191310373231704153
5486654 2 18411699894344697111
59755656 520 18410288125472710622
7064713 232 18261956250042812604
7808743 9 18410008810653371232
9981440 41 18261678086517490395

>  <PUBCHEM_SHAPE_MULTIPOLES>
438.11
12.86
2.67
0.91
10.67
0.23
0.08
5.77
1.24
-3.74
-0.19
0.92
0.1
0.12

>  <PUBCHEM_SHAPE_SELFOVERLAP>
968.184

>  <PUBCHEM_SHAPE_VOLUME>
235

>  <PUBCHEM_COORDINATE_TYPE>
2
5
10

$$$$
21575635
 OpenBabel09242400493D

 40 42  0  0  1  0  0  0  0  0999 V2000
   -0.4337    2.3952    0.1856 O   0  0  0  0  0  0  0  0  0  0  0  0
    2.9142   -0.1196    1.8152 O   0  0  0  0  0  0  0  0  0  0  0  0
    3.8835    1.2239    0.2607 O   0  0  0  0  0  0  0  0  0  0  0  0
   -0.2524    1.1170   -0.4584 C   0  0  1  0  0  0  0  0  0  0  0  0
    0.0185   -0.0038    0.5258 C   0  0  1  0  0  0  0  0  0  0  0  0
   -1.5745    1.8443   -0.4718 C   0  0  1  0  0  0  0  0  0  0  0  0
   -1.3109   -0.6661    0.9802 C   0  0  1  0  0  0  0  0  0  0  0  0
   -2.6937    1.4154    0.4176 C   0  0  0  0  0  0  0  0  0  0  0  0
    1.0070   -1.0694    0.0008 C   0  0  1  0  0  0  0  0  0  0  0  0
   -2.2614    0.4305    1.5030 C   0  0  0  0  0  0  0  0  0  0  0  0
   -1.9258   -1.5577   -0.1337 C   0  0  1  0  0  0  0  0  0  0  0  0
    0.3904   -1.9209   -1.1138 C   0  0  0  0  0  0  0  0  0  0  0  0
   -0.9014   -2.5834   -0.6443 C   0  0  0  0  0  0  0  0  0  0  0  0
   -1.9533    2.6047   -1.6929 C   0  0  0  0  0  0  0  0  0  0  0  0
   -3.1835   -2.2918    0.3409 C   0  0  0  0  0  0  0  0  0  0  0  0
    2.3236   -0.4840   -0.4154 C   0  0  0  0  0  0  0  0  0  0  0  0
    3.1275    0.3090    0.5488 C   0  0  0  0  0  0  0  0  0  0  0  0
    2.8259   -0.6437   -1.6482 C   0  0  0  0  0  0  0  0  0  0  0  0
    0.3375    1.0991   -1.3630 H   0  0  0  0  0  0  0  0  0  0  0  0
    0.4618    0.4564    1.4196 H   0  0  0  0  0  0  0  0  0  0  0  0
   -1.0744   -1.3188    1.8330 H   0  0  0  0  0  0  0  0  0  0  0  0
   -3.4763    0.9480   -0.1924 H   0  0  0  0  0  0  0  0  0  0  0  0
   -3.1529    2.2929    0.8885 H   0  0  0  0  0  0  0  0  0  0  0  0
    1.2139   -1.7595    0.8326 H   0  0  0  0  0  0  0  0  0  0  0  0
   -1.7487    0.9852    2.3004 H   0  0  0  0  0  0  0  0  0  0  0  0
   -3.1471   -0.0103    1.9734 H   0  0  0  0  0  0  0  0  0  0  0  0
   -2.2135   -0.9332   -0.9887 H   0  0  0  0  0  0  0  0  0  0  0  0
    1.0746   -2.7222   -1.4211 H   0  0  0  0  0  0  0  0  0  0  0  0
    0.1595   -1.3170   -2.0009 H   0  0  0  0  0  0  0  0  0  0  0  0
   -1.3308   -3.1565   -1.4752 H   0  0  0  0  0  0  0  0  0  0  0  0
   -0.6707   -3.3056    0.1497 H   0  0  0  0  0  0  0  0  0  0  0  0
   -1.0781    2.9537   -2.2520 H   0  0  0  0  0  0  0  0  0  0  0  0
   -2.5474    1.9758   -2.3639 H   0  0  0  0  0  0  0  0  0  0  0  0
   -2.5513    3.4835   -1.4302 H   0  0  0  0  0  0  0  0  0  0  0  0
   -2.9809   -2.8873    1.2374 H   0  0  0  0  0  0  0  0  0  0  0  0
   -3.9923   -1.5918    0.5703 H   0  0  0  0  0  0  0  0  0  0  0  0
   -3.5548   -2.9683   -0.4366 H   0  0  0  0  0  0  0  0  0  0  0  0
    2.3434   -1.1895   -2.4482 H   0  0  0  0  0  0  0  0  0  0  0  0
    3.7862   -0.2105   -1.9170 H   0  0  0  0  0  0  0  0  0  0  0  0
    3.4360    0.3926    2.4692 H   0  0  0  0  0  0  0  0  0  0  0  0
  1  4  1  0  0  0  0
  1  6  1  0  0  0  0
  2 17  1  0  0  0  0
  2 40  1  0  0  0  0
  3 17  2  0  0  0  0
  4  5  1  0  0  0  0
  4  6  1  0  0  0  0
  4 19  1  6  0  0  0
  5  7  1  0  0  0  0
  5  9  1  0  0  0  0
  5 20  1  1  0  0  0
  6  8  1  0  0  0  0
  6 14  1  6  0  0  0
  7 10  1  0  0  0  0
  7 11  1  0  0  0  0
  7 21  1  1  0  0  0
  8 10  1  0  0  0  0
  8 22  1  0  0  0  0
  8 23  1  0  0  0  0
  9 12  1  0  0  0  0
  9 16  1  0  0  0  0
  9 24  1  1  0  0  0
 10 25  1  0  0  0  0
 10 26  1  0  0  0  0
 11 13  1  0  0  0  0
 11 15  1  0  0  0  0
 11 27  1  6  0  0  0
 12 13  1  0  0  0  0
 12 28  1  0  0  0  0
 12 29  1  0  0  0  0
 13 30  1  0  0  0  0
 13 31  1  0  0  0  0
 14 32  1  0  0  0  0
 14 33  1  0  0  0  0
 14 34  1  0  0  0  0
 15 35  1  0  0  0  0
 15 36  1  0  0  0  0
 15 37  1  0  0  0  0
 16 17  1  0  0  0  0
 16 18  2  0  0  0  0
 18 38  1  0  0  0  0
 18 39  1  0  0  0  0
M  END
>  <PUBCHEM_COMPOUND_CID>
21575635

>  <PUBCHEM_CONFORMER_RMSD>
0.6

>  <PUBCHEM_CONFORMER_DIVERSEORDER>
1
15
9
14
7
12
13
18
16
8
5
6
10
4
2
17
11
3

>  <PUBCHEM_MMFF94_PARTIAL_CHARGES>
16
1 -0.3
14 0.09
16 -0.12
17 0.71
18 -0.3
19 0.1
2 -0.65
3 -0.57
38 0.15
39 0.15
4 -0.05
40 0.5
5 0.09
6 -0.04
8 0.09
9 0.14

>  <PUBCHEM_EFFECTIVE_ROTOR_COUNT>
3.4

>  <PUBCHEM_PHARMACOPHORE_FEATURES>
7
1 1 acceptor
1 18 hydrophobe
1 2 acceptor
1 3 acceptor
3 2 3 17 anion
6 5 7 9 11 12 13 rings
7 1 4 5 6 7 8 10 rings

>  <PUBCHEM_HEAVY_ATOM_COUNT>
18

>  <PUBCHEM_ATOM_DEF_STEREO_COUNT>
6

>  <PUBCHEM_ATOM_UDEF_STEREO_COUNT>
0

>  <PUBCHEM_BOND_DEF_STEREO_COUNT>
0

>  <PUBCHEM_BOND_UDEF_STEREO_COUNT>
0

>  <PUBCHEM_ISOTOPIC_ATOM_COUNT>
0

>  <PUBCHEM_COMPONENT_COUNT>
1

>  <PUBCHEM_CACTVS_TAUTO_COUNT>
1

>  <PUBCHEM_CONFORMER_ID>
014937D300000001

>  <PUBCHEM_MMFF94_ENERGY>
42.4547

>  <PUBCHEM_FEATURE_SELFOVERLAP>
35.611

>  <PUBCHEM_SHAPE_FINGERPRINT>
10165383 225 17837810778841370820
10871710 139 17973173008579029844
10989021 7 18121502615869919761
11132069 177 18411428310202850577
12138202 97 18263072228289961757
12173636 292 17846507993100123433
13140716 1 18269568138845402195
13294875 104 16017754920724881129
13583140 156 17023181587362177212
14181834 199 17691960883861230839
14614273 12 18413106143430036031
14787075 74 15945747315827271998
14817 1 10755135118046792847
15490181 7 18193279585329659631
15852999 172 18049141294529402885
15881359 60 17986654047257719959
16945 1 18113627758999241629
17357779 13 18129083688862507415
18186145 218 17985544446820538588
18981168 100 18339360760599594366
19868273 325 18335993063509595909
19930374 2 18411972555515915739
20388701 513 18339919423996422798
20511035 2 17463976756683335483
20525323 117 18408602578046190474
20871998 184 18412268354313761315
21296965 12 18043534897903947309
21486144 27 17917722248929324176
21524375 3 17536591807606763309
22112679 90 18192733338677807525
22802520 49 18058463018740302662
23388829 49 17836367416379306561
23402539 116 18198333146919084911
23419403 2 16121851635056308791
23493267 7 17461467752832042600
23557571 272 18342748459119940460
23559900 14 18270966731026828046
238 59 17766266583940658469
2748010 2 18271819985850759223
5255222 1 18054811501795783206
6333449 129 18341612602983001048
7097593 13 17970890190801397634
81228 2 18337962280398326835
90316 7 18333447659779223945

>  <PUBCHEM_SHAPE_MULTIPOLES>
352.82
5.05
2.88
1.43
3.62
0.01
-0.04
0.5
0.82
-2.43
-1.05
0.27
0.24
0.82

>  <PUBCHEM_SHAPE_SELFOVERLAP>
740.899

>  <PUBCHEM_SHAPE_VOLUME>
197.5

>  <PUBCHEM_COORDINATE_TYPE>
2
5
10

$$$$
21593314
 OpenBabel09242400493D

 40 42  0  0  1  0  0  0  0  0999 V2000
    0.3995   -0.5905    1.0759 O   0  0  0  0  0  0  0  0  0  0  0  0
   -1.2282   -0.8638   -2.2075 O   0  0  0  0  0  0  0  0  0  0  0  0
    2.1564   -1.8719    1.8157 O   0  0  0  0  0  0  0  0  0  0  0  0
   -0.0531   -0.0985   -0.2088 C   0  0  1  0  0  0  0  0  0  0  0  0
   -0.9473    1.1701   -0.0465 C   0  0  2  0  0  0  0  0  0  0  0  0
    1.2862    0.1734   -0.9218 C   0  0  1  0  0  0  0  0  0  0  0  0
   -0.1632    2.3831    0.5026 C   0  0  1  0  0  0  0  0  0  0  0  0
    1.9640    1.4855   -0.4759 C   0  0  0  0  0  0  0  0  0  0  0  0
   -0.8907   -1.2367   -0.8719 C   0  0  1  0  0  0  0  0  0  0  0  0
    2.1079   -1.0499   -0.4852 C   0  0  2  0  0  0  0  0  0  0  0  0
    1.0171    2.6704   -0.4327 C   0  0  0  0  0  0  0  0  0  0  0  0
   -2.1978    0.8431    0.7987 C   0  0  0  0  0  0  0  0  0  0  0  0
   -3.0175   -0.2930    0.1838 C   0  0  0  0  0  0  0  0  0  0  0  0
   -2.1594   -1.4954   -0.0885 C   0  0  0  0  0  0  0  0  0  0  0  0
    1.6031   -1.2392    0.9301 C   0  0  0  0  0  0  0  0  0  0  0  0
   -1.0179    3.6488    0.6260 C   0  0  0  0  0  0  0  0  0  0  0  0
    3.6203   -0.9205   -0.5637 C   0  0  0  0  0  0  0  0  0  0  0  0
   -2.4793   -2.7151    0.3699 C   0  0  0  0  0  0  0  0  0  0  0  0
   -1.3032    1.4555   -1.0481 H   0  0  0  0  0  0  0  0  0  0  0  0
    1.1626    0.2024   -2.0105 H   0  0  0  0  0  0  0  0  0  0  0  0
    0.2230    2.1441    1.5023 H   0  0  0  0  0  0  0  0  0  0  0  0
    2.7946    1.7147   -1.1546 H   0  0  0  0  0  0  0  0  0  0  0  0
    2.4026    1.3767    0.5241 H   0  0  0  0  0  0  0  0  0  0  0  0
   -0.3142   -2.1655   -0.9318 H   0  0  0  0  0  0  0  0  0  0  0  0
    1.8111   -1.9296   -1.0670 H   0  0  0  0  0  0  0  0  0  0  0  0
    1.5692    3.5515   -0.0837 H   0  0  0  0  0  0  0  0  0  0  0  0
    0.6597    2.8993   -1.4447 H   0  0  0  0  0  0  0  0  0  0  0  0
   -2.8545    1.7160    0.8729 H   0  0  0  0  0  0  0  0  0  0  0  0
   -1.9017    0.5804    1.8221 H   0  0  0  0  0  0  0  0  0  0  0  0
   -3.4644    0.0462   -0.7591 H   0  0  0  0  0  0  0  0  0  0  0  0
   -3.8497   -0.5373    0.8548 H   0  0  0  0  0  0  0  0  0  0  0  0
   -1.5273    3.8790   -0.3157 H   0  0  0  0  0  0  0  0  0  0  0  0
   -1.7730    3.5462    1.4109 H   0  0  0  0  0  0  0  0  0  0  0  0
   -0.3985    4.5118    0.8945 H   0  0  0  0  0  0  0  0  0  0  0  0
    4.0202   -0.2079    0.1645 H   0  0  0  0  0  0  0  0  0  0  0  0
    4.0914   -1.8854   -0.3443 H   0  0  0  0  0  0  0  0  0  0  0  0
    3.9349   -0.6146   -1.5665 H   0  0  0  0  0  0  0  0  0  0  0  0
   -1.7539   -1.5860   -2.5922 H   0  0  0  0  0  0  0  0  0  0  0  0
   -1.8439   -3.5737    0.1812 H   0  0  0  0  0  0  0  0  0  0  0  0
   -3.3846   -2.8825    0.9438 H   0  0  0  0  0  0  0  0  0  0  0  0
  1 15  1  0  0  0  0
  2  9  1  0  0  0  0
  2 38  1  0  0  0  0
  3 15  2  0  0  0  0
  4  1  1  1  0  0  0
  4  5  1  0  0  0  0
  4  6  1  0  0  0  0
  4  9  1  0  0  0  0
  5  7  1  0  0  0  0
  5 12  1  0  0  0  0
  5 19  1  6  0  0  0
  6  8  1  0  0  0  0
  6 10  1  0  0  0  0
  6 20  1  6  0  0  0
  7 11  1  0  0  0  0
  7 16  1  0  0  0  0
  7 21  1  1  0  0  0
  8 11  1  0  0  0  0
  8 22  1  0  0  0  0
  8 23  1  0  0  0  0
  9 14  1  0  0  0  0
  9 24  1  6  0  0  0
 10 15  1  0  0  0  0
 10 17  1  0  0  0  0
 10 25  1  6  0  0  0
 11 26  1  0  0  0  0
 11 27  1  0  0  0  0
 12 13  1  0  0  0  0
 12 28  1  0  0  0  0
 12 29  1  0  0  0  0
 13 14  1  0  0  0  0
 13 30  1  0  0  0  0
 13 31  1  0  0  0  0
 14 18  2  0  0  0  0
 16 32  1  0  0  0  0
 16 33  1  0  0  0  0
 16 34  1  0  0  0  0
 17 35  1  0  0  0  0
 17 36  1  0  0  0  0
 17 37  1  0  0  0  0
 18 39  1  0  0  0  0
 18 40  1  0  0  0  0
M  END
>  <PUBCHEM_COMPOUND_CID>
21593314

>  <PUBCHEM_CONFORMER_RMSD>
0.6

>  <PUBCHEM_CONFORMER_DIVERSEORDER>
1

>  <PUBCHEM_MMFF94_PARTIAL_CHARGES>
13
1 -0.43
10 0.06
13 0.14
14 -0.28
15 0.66
18 -0.3
2 -0.68
3 -0.57
38 0.4
39 0.15
4 0.28
40 0.15
9 0.42

>  <PUBCHEM_EFFECTIVE_ROTOR_COUNT>
1.6

>  <PUBCHEM_PHARMACOPHORE_FEATURES>
6
1 2 acceptor
1 2 donor
1 3 acceptor
5 1 4 6 10 15 rings
6 4 5 6 7 8 11 rings
6 4 5 9 12 13 14 rings

>  <PUBCHEM_HEAVY_ATOM_COUNT>
18

>  <PUBCHEM_ATOM_DEF_STEREO_COUNT>
6

>  <PUBCHEM_ATOM_UDEF_STEREO_COUNT>
0

>  <PUBCHEM_BOND_DEF_STEREO_COUNT>
0

>  <PUBCHEM_BOND_UDEF_STEREO_COUNT>
0

>  <PUBCHEM_ISOTOPIC_ATOM_COUNT>
0

>  <PUBCHEM_COMPONENT_COUNT>
1

>  <PUBCHEM_CACTVS_TAUTO_COUNT>
2

>  <PUBCHEM_CONFORMER_ID>
01497CE200000001

>  <PUBCHEM_MMFF94_ENERGY>
42.5647

>  <PUBCHEM_FEATURE_SELFOVERLAP>
30.681

>  <PUBCHEM_SHAPE_FINGERPRINT>
10863032 1 18267596877646891509
10967382 1 17764316436617362333
11578080 2 17750212816353144284
12423570 1 13427264787729879526
12716301 132 17839178507013547402
13140716 1 18340496637335527337
13172582 1 18270696259318408257
13538477 17 18262237703322821914
14787075 74 18117567442764569588
14817 1 15593006547879371502
15001771 113 18409173228817801751
15076042 46 18049157765713379674
15375462 189 18114189617962697235
15906896 17 18053936260669968285
16752209 62 18122342376597515061
16945 1 18268169577038937708
19868273 325 18411140199295841692
20510252 161 17984144759859906185
20645477 70 17979350095301215447
20905425 154 18269847556421858748
21041028 32 18340217395778876601
21524375 3 17328014885509035308
22112679 90 18272933855443072085
22344851 341 18193840563861326921
2334 1 18268718392328879845
23402539 116 18199465459565041173
23419403 2 16684488059822701404
23557571 272 18057609772654024806
23598294 1 18048041765938055312
25 1 17689724476904450613
2748010 2 18271528696820750389
34934 24 18342180019813621781
44249140 249 17459452528528457039
5845 1 11709913640469654804
7364860 26 18125161794856844279
7832392 63 18199201739935743649
81228 2 18053076476752214752
90525 40 17832710075638280834

>  <PUBCHEM_SHAPE_MULTIPOLES>
352.82
4.03
3.42
1.27
0.26
2.86
-0.1
-2.42
-0.02
-0.39
0.78
0.16
-0.55
-0.65

>  <PUBCHEM_SHAPE_SELFOVERLAP>
749.824

>  <PUBCHEM_SHAPE_VOLUME>
196.1

>  <PUBCHEM_COORDINATE_TYPE>
2
5
10

$$$$
2345
 OpenBabel09242400493D

 28 29  0  0  0  0  0  0  0  0999 V2000
    0.0384    0.5677   -0.0007 O   0  0  0  0  0  0  0  0  0  0  0  0
   -1.2881    2.4489    0.0007 O   0  0  0  0  0  0  0  0  0  0  0  0
    2.4257    0.4999    0.0004 C   0  0  0  0  0  0  0  0  0  0  0  0
    1.2139    1.3848    0.0007 C   0  0  0  0  0  0  0  0  0  0  0  0
   -2.2785    0.2801   -0.0006 C   0  0  0  0  0  0  0  0  0  0  0  0
    2.9810    0.0929    1.2083 C   0  0  0  0  0  0  0  0  0  0  0  0
    2.9820    0.0951   -1.2077 C   0  0  0  0  0  0  0  0  0  0  0  0
   -1.1662    1.2167   -0.0005 C   0  0  0  0  0  0  0  0  0  0  0  0
    4.1074   -0.7297    1.2080 C   0  0  0  0  0  0  0  0  0  0  0  0
    4.1084   -0.7276   -1.2079 C   0  0  0  0  0  0  0  0  0  0  0  0
   -3.5899    0.7551    0.0007 C   0  0  0  0  0  0  0  0  0  0  0  0
   -2.0342   -1.0932   -0.0014 C   0  0  0  0  0  0  0  0  0  0  0  0
    4.6711   -1.1399   -0.0001 C   0  0  0  0  0  0  0  0  0  0  0  0
   -4.6571   -0.1431    0.0010 C   0  0  0  0  0  0  0  0  0  0  0  0
   -3.1013   -1.9914   -0.0010 C   0  0  0  0  0  0  0  0  0  0  0  0
   -4.4127   -1.5163    0.0002 C   0  0  0  0  0  0  0  0  0  0  0  0
    1.2136    2.0296    0.8882 H   0  0  0  0  0  0  0  0  0  0  0  0
    1.2145    2.0313   -0.8857 H   0  0  0  0  0  0  0  0  0  0  0  0
    2.5486    0.4046    2.1550 H   0  0  0  0  0  0  0  0  0  0  0  0
    2.5504    0.4086   -2.1543 H   0  0  0  0  0  0  0  0  0  0  0  0
    4.5452   -1.0514    2.1484 H   0  0  0  0  0  0  0  0  0  0  0  0
    4.5471   -1.0476   -2.1485 H   0  0  0  0  0  0  0  0  0  0  0  0
   -3.8025    1.8210    0.0014 H   0  0  0  0  0  0  0  0  0  0  0  0
   -1.0303   -1.5085   -0.0024 H   0  0  0  0  0  0  0  0  0  0  0  0
    5.5481   -1.7807   -0.0003 H   0  0  0  0  0  0  0  0  0  0  0  0
   -5.6783    0.2266    0.0020 H   0  0  0  0  0  0  0  0  0  0  0  0
   -2.9117   -3.0609   -0.0017 H   0  0  0  0  0  0  0  0  0  0  0  0
   -5.2436   -2.2157    0.0005 H   0  0  0  0  0  0  0  0  0  0  0  0
  1  4  1  0  0  0  0
  1  8  1  0  0  0  0
  2  8  2  0  0  0  0
  3  4  1  0  0  0  0
  3  6  2  0  0  0  0
  3  7  1  0  0  0  0
  4 17  1  0  0  0  0
  4 18  1  0  0  0  0
  5  8  1  0  0  0  0
  5 11  2  0  0  0  0
  5 12  1  0  0  0  0
  6  9  1  0  0  0  0
  6 19  1  0  0  0  0
  7 10  2  0  0  0  0
  7 20  1  0  0  0  0
  9 13  2  0  0  0  0
  9 21  1  0  0  0  0
 10 13  1  0  0  0  0
 10 22  1  0  0  0  0
 11 14  1  0  0  0  0
 11 23  1  0  0  0  0
 12 15  2  0  0  0  0
 12 24  1  0  0  0  0
 13 25  1  0  0  0  0
 14 16  2  0  0  0  0
 14 26  1  0  0  0  0
 15 16  1  0  0  0  0
 15 27  1  0  0  0  0
 16 28  1  0  0  0  0
M  END
>  <PUBCHEM_COMPOUND_CID>
2345

>  <PUBCHEM_CONFORMER_RMSD>
0.6

>  <PUBCHEM_CONFORMER_DIVERSEORDER>
1
14
19
15
6
9
12
21
18
8
4
20
2
5
3
17
13
10
16
7
11

>  <PUBCHEM_MMFF94_PARTIAL_CHARGES>
26
1 -0.43
10 -0.15
11 -0.15
12 -0.15
13 -0.15
14 -0.15
15 -0.15
16 -0.15
19 0.15
2 -0.57
20 0.15
21 0.15
22 0.15
23 0.15
24 0.15
25 0.15
26 0.15
27 0.15
28 0.15
3 -0.14
4 0.42
5 0.09
6 -0.15
7 -0.15
8 0.63
9 -0.15

>  <PUBCHEM_EFFECTIVE_ROTOR_COUNT>
4

>  <PUBCHEM_PHARMACOPHORE_FEATURES>
3
1 2 acceptor
6 3 6 7 9 10 13 rings
6 5 11 12 14 15 16 rings

>  <PUBCHEM_HEAVY_ATOM_COUNT>
16

>  <PUBCHEM_ATOM_DEF_STEREO_COUNT>
0

>  <PUBCHEM_ATOM_UDEF_STEREO_COUNT>
0

>  <PUBCHEM_BOND_DEF_STEREO_COUNT>
0

>  <PUBCHEM_BOND_UDEF_STEREO_COUNT>
0

>  <PUBCHEM_ISOTOPIC_ATOM_COUNT>
0

>  <PUBCHEM_COMPONENT_COUNT>
1

>  <PUBCHEM_CACTVS_TAUTO_COUNT>
1

>  <PUBCHEM_CONFORMER_ID>
0000092900000001

>  <PUBCHEM_MMFF94_ENERGY>
43.7677

>  <PUBCHEM_FEATURE_SELFOVERLAP>
15.223

>  <PUBCHEM_SHAPE_FINGERPRINT>
11046707 91 18408886239356342601
11458722 379 18334296461418492363
11543360 7 15430319182570985451
11578080 2 17605248797075201348
12032990 46 18339928211799982741
12236239 1 17749391434470725910
12346177 29 18341602712079604541
12363563 72 18341336664208643940
12403814 3 13254796815774041787
12553582 1 18334294270926661897
12555020 224 18410001157601911791
13167823 11 18186239532551451306
13675066 3 17560798831533826601
13862211 1 18411697729987401335
1420 369 18411701010461401979
14252887 29 17060342899075150902
14386348 63 18060703875119514926
14576447 43 17894914010462931498
15239191 94 18333730234230548002
15880784 105 16487249993399766319
15885798 251 18412263960657390449
16752209 62 18188478091302826953
17804303 29 18413108377066101113
17834072 8 18260541221901518941
1798214 20 17894627063101747754
18186145 218 13190335764325136213
18915474 69 18113623412687659958
19107657 162 18201720652239236366
19141452 34 17988924509348079455
193927 3 18337681900669892659
19862831 5 17385442124334865688
200 152 16877942715851252092
20281475 54 18411705391206711544
20291156 8 18334012821561622757
20374829 77 18410291419559106391
20403669 9 18341896302943019535
20432913 95 16917350333229035758
20645477 70 18337109084954728078
21267235 1 18408611378977687371
2215653 11 18202000997792457895
22646028 1 18113898256113435714
22646028 28 18334574650723758650
22959321 94 18409443683056163002
23402539 116 18272081661334086557
23402655 69 13912323473692797454
23403322 49 18410857668110825031
23559900 14 18413105086942109544
26918003 58 17561361768692004034
3004659 81 18186803586596259094
3060560 45 15068623786464671890
314173 41 18336833081782209096
351380 3 18187085057046153723
4325135 7 18334858347058501980
4921388 177 15430329074060081875
5104073 3 18341898540926696249
5281201 14 13695863693269384362
559249 180 18042396933207188403
573450 72 18334008354874756345
5924683 9 16773223115656880431
67856867 119 18187928451833306036
960060 61 17458063785123336998
9709674 26 18192995048225753531

>  <PUBCHEM_SHAPE_MULTIPOLES>
317.53
10.73
1.81
0.98
0.73
0.22
0
-4.88
0
-1.31
0
1.34
-0.13
0

>  <PUBCHEM_SHAPE_SELFOVERLAP>
679.521

>  <PUBCHEM_SHAPE_VOLUME>
175.6

>  <PUBCHEM_COORDINATE_TYPE>
2
5
10

$$$$
2758
 OpenBabel09242400493D

 29 30  0  0  0  0  0  0  0  0999 V2000
   -0.0266   -1.1890   -0.0001 O   0  0  0  0  0  0  0  0  0  0  0  0
   -0.8182    1.1397    0.0002 C   0  0  1  0  0  0  0  0  0  0  0  0
    1.2002   -0.4308   -0.0001 C   0  0  2  0  0  0  0  0  0  0  0  0
   -1.2129   -0.3664   -0.0001 C   0  0  0  0  0  0  0  0  0  0  0  0
    0.0588    1.4396    1.2312 C   0  0  0  0  0  0  0  0  0  0  0  0
    0.0586    1.4400   -1.2306 C   0  0  0  0  0  0  0  0  0  0  0  0
    1.2279    0.4485    1.2647 C   0  0  0  0  0  0  0  0  0  0  0  0
    1.2278    0.4490   -1.2646 C   0  0  0  0  0  0  0  0  0  0  0  0
    2.3555   -1.4263   -0.0003 C   0  0  0  0  0  0  0  0  0  0  0  0
   -2.0357   -0.7526    1.2386 C   0  0  0  0  0  0  0  0  0  0  0  0
   -2.0354   -0.7519   -1.2390 C   0  0  0  0  0  0  0  0  0  0  0  0
   -1.7032    1.7855    0.0004 H   0  0  0  0  0  0  0  0  0  0  0  0
   -0.5204    1.3788    2.1589 H   0  0  0  0  0  0  0  0  0  0  0  0
    0.4423    2.4665    1.1854 H   0  0  0  0  0  0  0  0  0  0  0  0
    0.4421    2.4670   -1.1845 H   0  0  0  0  0  0  0  0  0  0  0  0
   -0.5205    1.3797   -2.1584 H   0  0  0  0  0  0  0  0  0  0  0  0
    2.1763    0.9921    1.3479 H   0  0  0  0  0  0  0  0  0  0  0  0
    1.1320   -0.1782    2.1601 H   0  0  0  0  0  0  0  0  0  0  0  0
    1.1319   -0.1775   -2.1602 H   0  0  0  0  0  0  0  0  0  0  0  0
    2.1762    0.9926   -1.3477 H   0  0  0  0  0  0  0  0  0  0  0  0
    3.3255   -0.9190   -0.0002 H   0  0  0  0  0  0  0  0  0  0  0  0
    2.3054   -2.0809    0.8772 H   0  0  0  0  0  0  0  0  0  0  0  0
    2.3054   -2.0806   -0.8780 H   0  0  0  0  0  0  0  0  0  0  0  0
   -2.9293   -0.1279    1.3365 H   0  0  0  0  0  0  0  0  0  0  0  0
   -2.3523   -1.8011    1.1846 H   0  0  0  0  0  0  0  0  0  0  0  0
   -1.4488   -0.6753    2.1592 H   0  0  0  0  0  0  0  0  0  0  0  0
   -2.9289   -0.1269   -1.3368 H   0  0  0  0  0  0  0  0  0  0  0  0
   -1.4484   -0.6745   -2.1595 H   0  0  0  0  0  0  0  0  0  0  0  0
   -2.3524   -1.8003   -1.1855 H   0  0  0  0  0  0  0  0  0  0  0  0
  1  3  1  0  0  0  0
  1  4  1  0  0  0  0
  2  4  1  0  0  0  0
  2  5  1  0  0  0  0
  2  6  1  0  0  0  0
  2 12  1  1  0  0  0
  3  7  1  0  0  0  0
  3  8  1  0  0  0  0
  3  9  1  6  0  0  0
  4 10  1  0  0  0  0
  4 11  1  0  0  0  0
  5  7  1  0  0  0  0
  5 13  1  0  0  0  0
  5 14  1  0  0  0  0
  6  8  1  0  0  0  0
  6 15  1  0  0  0  0
  6 16  1  0  0  0  0
  7 17  1  0  0  0  0
  7 18  1  0  0  0  0
  8 19  1  0  0  0  0
  8 20  1  0  0  0  0
  9 21  1  0  0  0  0
  9 22  1  0  0  0  0
  9 23  1  0  0  0  0
 10 24  1  0  0  0  0
 10 25  1  0  0  0  0
 10 26  1  0  0  0  0
 11 27  1  0  0  0  0
 11 28  1  0  0  0  0
 11 29  1  0  0  0  0
M  END
>  <PUBCHEM_COMPOUND_CID>
2758

>  <PUBCHEM_CONFORMER_RMSD>
0.4

>  <PUBCHEM_CONFORMER_DIVERSEORDER>
1

>  <PUBCHEM_MMFF94_PARTIAL_CHARGES>
3
1 -0.56
3 0.28
4 0.28

>  <PUBCHEM_EFFECTIVE_ROTOR_COUNT>
1.2

>  <PUBCHEM_PHARMACOPHORE_FEATURES>
3
1 1 acceptor
3 4 10 11 hydrophobe
8 1 2 3 4 5 6 7 8 rings

>  <PUBCHEM_HEAVY_ATOM_COUNT>
11

>  <PUBCHEM_ATOM_DEF_STEREO_COUNT>
0

>  <PUBCHEM_ATOM_UDEF_STEREO_COUNT>
0

>  <PUBCHEM_BOND_DEF_STEREO_COUNT>
0

>  <PUBCHEM_BOND_UDEF_STEREO_COUNT>
0

>  <PUBCHEM_ISOTOPIC_ATOM_COUNT>
0

>  <PUBCHEM_COMPONENT_COUNT>
1

>  <PUBCHEM_CACTVS_TAUTO_COUNT>
1

>  <PUBCHEM_CONFORMER_ID>
00000AC600000001

>  <PUBCHEM_MMFF94_ENERGY>
38.3875

>  <PUBCHEM_FEATURE_SELFOVERLAP>
15.223

>  <PUBCHEM_SHAPE_FINGERPRINT>
12423570 1 15118964766758913508
13024252 1 14203404797501060330
137420 1 12310392494010875493
14128692 85 18262256485309817894
14817 1 12950157061421788961
16945 1 18266740358220859072
20653085 51 13407646455264382238
20653091 64 17558557051968513835
21922407 69 16414352462667106187
29004967 10 17968669322698254968
369184 2 17415261850659446106
5084963 1 17614563635845719653
528886 8 17895481323327503141

>  <PUBCHEM_SHAPE_MULTIPOLES>
220.51
2.52
1.57
1.48
0.07
0.18
0
-1.28
0
-0.2
0
0.2
0.31
0

>  <PUBCHEM_SHAPE_SELFOVERLAP>
456.662

>  <PUBCHEM_SHAPE_VOLUME>
128

>  <PUBCHEM_COORDINATE_TYPE>
2
5
10

$$$$
323
 OpenBabel09242400493D

 17 18  0  0  0  0  0  0  0  0999 V2000
   -1.0575    1.1268    0.0004 O   0  0  0  0  0  0  0  0  0  0  0  0
   -3.3191    0.7644   -0.0007 O   0  0  0  0  0  0  0  0  0  0  0  0
    0.4475   -0.7862   -0.0001 C   0  0  0  0  0  0  0  0  0  0  0  0
    0.2469    0.5916    0.0002 C   0  0  0  0  0  0  0  0  0  0  0  0
    1.7547   -1.2780   -0.0004 C   0  0  0  0  0  0  0  0  0  0  0  0
   -0.7110   -1.6630    0.0002 C   0  0  0  0  0  0  0  0  0  0  0  0
    1.3138    1.4878    0.0001 C   0  0  0  0  0  0  0  0  0  0  0  0
    2.8349   -0.3906   -0.0002 C   0  0  0  0  0  0  0  0  0  0  0  0
    2.6145    0.9888    0.0000 C   0  0  0  0  0  0  0  0  0  0  0  0
   -1.9433   -1.1484    0.0004 C   0  0  0  0  0  0  0  0  0  0  0  0
   -2.1815    0.3070   -0.0001 C   0  0  0  0  0  0  0  0  0  0  0  0
    1.9479   -2.3478   -0.0005 H   0  0  0  0  0  0  0  0  0  0  0  0
   -0.5589   -2.7366    0.0004 H   0  0  0  0  0  0  0  0  0  0  0  0
    1.1412    2.5596    0.0003 H   0  0  0  0  0  0  0  0  0  0  0  0
    3.8507   -0.7758   -0.0003 H   0  0  0  0  0  0  0  0  0  0  0  0
    3.4587    1.6723    0.0000 H   0  0  0  0  0  0  0  0  0  0  0  0
   -2.8129   -1.7966    0.0006 H   0  0  0  0  0  0  0  0  0  0  0  0
  1  4  1  0  0  0  0
  1 11  1  0  0  0  0
  2 11  2  0  0  0  0
  3  4  1  0  0  0  0
  3  5  2  0  0  0  0
  3  6  1  0  0  0  0
  4  7  2  0  0  0  0
  5  8  1  0  0  0  0
  5 12  1  0  0  0  0
  6 10  2  0  0  0  0
  6 13  1  0  0  0  0
  7  9  1  0  0  0  0
  7 14  1  0  0  0  0
  8  9  2  0  0  0  0
  8 15  1  0  0  0  0
  9 16  1  0  0  0  0
 10 11  1  0  0  0  0
 10 17  1  0  0  0  0
M  END
>  <PUBCHEM_COMPOUND_CID>
323

>  <PUBCHEM_CONFORMER_RMSD>
0.4

>  <PUBCHEM_CONFORMER_DIVERSEORDER>
1

>  <PUBCHEM_MMFF94_PARTIAL_CHARGES>
17
1 -0.23
10 -0.14
11 0.71
12 0.15
13 0.15
14 0.15
15 0.15
16 0.15
17 0.15
2 -0.57
3 0.03
4 0.08
5 -0.15
6 -0.18
7 -0.15
8 -0.15
9 -0.15

>  <PUBCHEM_EFFECTIVE_ROTOR_COUNT>
0

>  <PUBCHEM_PHARMACOPHORE_FEATURES>
3
1 2 acceptor
6 1 3 4 6 10 11 rings
6 3 4 5 7 8 9 rings

>  <PUBCHEM_HEAVY_ATOM_COUNT>
11

>  <PUBCHEM_ATOM_DEF_STEREO_COUNT>
0

>  <PUBCHEM_ATOM_UDEF_STEREO_COUNT>
0

>  <PUBCHEM_BOND_DEF_STEREO_COUNT>
0

>  <PUBCHEM_BOND_UDEF_STEREO_COUNT>
0

>  <PUBCHEM_ISOTOPIC_ATOM_COUNT>
0

>  <PUBCHEM_COMPONENT_COUNT>
1

>  <PUBCHEM_CACTVS_TAUTO_COUNT>
1

>  <PUBCHEM_CONFORMER_ID>
0000014300000001

>  <PUBCHEM_MMFF94_ENERGY>
34.5205

>  <PUBCHEM_FEATURE_SELFOVERLAP>
15.25

>  <PUBCHEM_SHAPE_FINGERPRINT>
12524768 44 18340210699946065110
12897270 3 18411419539800426348
13380535 21 18337407022599262318
13380535 76 18411133649465823814
14325111 11 18410575110543827873
15775835 57 18408328795355900444
16945 1 18410855434495579526
17844478 74 17968106321616780137
19973954 147 18337675346380707938
20201158 50 18413107234341075766
21040471 1 18338517559555637282
21501502 16 18338232781633187414
23235685 24 18411975853918722377
23402655 69 18341883070692041413
23463225 33 18335416829655078626
23552423 10 18189334730982694670
23559900 14 18342466950537839916
241688 4 17260475768854726274
2748010 2 18338517572255961958
369184 2 18411417349251145235
5084963 1 18272650151388851866
528886 8 18411132545732750578
53812653 166 18342733052951086632
63268167 104 18411703166429177904

>  <PUBCHEM_SHAPE_MULTIPOLES>
214.64
4.2
1.69
0.6
0.76
0.17
0
-0.7
0
-0.05
0
-0.04
0.02
0

>  <PUBCHEM_SHAPE_SELFOVERLAP>
468.748

>  <PUBCHEM_SHAPE_VOLUME>
116.3

>  <PUBCHEM_COORDINATE_TYPE>
2
5
10

$$$$
325
 OpenBabel09242400493D

 25 25  0  0  0  0  0  0  0  0999 V2000
   -3.8398    0.4979    0.5441 O   0  0  0  0  0  0  0  0  0  0  0  0
    2.5251    0.4274    0.0202 C   0  0  0  0  0  0  0  0  0  0  0  0
    1.0543    0.1905   -0.0441 C   0  0  0  0  0  0  0  0  0  0  0  0
    3.2894   -0.3057   -1.0987 C   0  0  0  0  0  0  0  0  0  0  0  0
    3.1225    0.0555    1.3907 C   0  0  0  0  0  0  0  0  0  0  0  0
    0.1845    1.2598   -0.2575 C   0  0  0  0  0  0  0  0  0  0  0  0
    0.5484   -1.1002    0.1088 C   0  0  0  0  0  0  0  0  0  0  0  0
   -1.6973   -0.2525   -0.1650 C   0  0  0  0  0  0  0  0  0  0  0  0
   -1.1914    1.0384   -0.3178 C   0  0  0  0  0  0  0  0  0  0  0  0
   -0.8274   -1.3218    0.0483 C   0  0  0  0  0  0  0  0  0  0  0  0
   -3.1682   -0.4892   -0.2290 C   0  0  0  0  0  0  0  0  0  0  0  0
    2.7183    1.4994   -0.1224 H   0  0  0  0  0  0  0  0  0  0  0  0
    3.2215   -1.3941   -0.9960 H   0  0  0  0  0  0  0  0  0  0  0  0
    4.3506   -0.0347   -1.0796 H   0  0  0  0  0  0  0  0  0  0  0  0
    2.8911   -0.0359   -2.0830 H   0  0  0  0  0  0  0  0  0  0  0  0
    2.6042    0.5853    2.1976 H   0  0  0  0  0  0  0  0  0  0  0  0
    4.1821    0.3298    1.4346 H   0  0  0  0  0  0  0  0  0  0  0  0
    3.0477   -1.0185    1.5923 H   0  0  0  0  0  0  0  0  0  0  0  0
    0.5619    2.2714   -0.3805 H   0  0  0  0  0  0  0  0  0  0  0  0
    1.2075   -1.9477    0.2755 H   0  0  0  0  0  0  0  0  0  0  0  0
   -1.8537    1.8821   -0.4929 H   0  0  0  0  0  0  0  0  0  0  0  0
   -1.2076   -2.3329    0.1675 H   0  0  0  0  0  0  0  0  0  0  0  0
   -3.5133   -0.4266   -1.2664 H   0  0  0  0  0  0  0  0  0  0  0  0
   -3.4365   -1.4712    0.1743 H   0  0  0  0  0  0  0  0  0  0  0  0
   -4.7929    0.3214    0.4658 H   0  0  0  0  0  0  0  0  0  0  0  0
  1 11  1  0  0  0  0
  1 25  1  0  0  0  0
  2  3  1  0  0  0  0
  2  4  1  0  0  0  0
  2  5  1  0  0  0  0
  2 12  1  0  0  0  0
  3  6  2  0  0  0  0
  3  7  1  0  0  0  0
  4 13  1  0  0  0  0
  4 14  1  0  0  0  0
  4 15  1  0  0  0  0
  5 16  1  0  0  0  0
  5 17  1  0  0  0  0
  5 18  1  0  0  0  0
  6  9  1  0  0  0  0
  6 19  1  0  0  0  0
  7 10  2  0  0  0  0
  7 20  1  0  0  0  0
  8  9  2  0  0  0  0
  8 10  1  0  0  0  0
  8 11  1  0  0  0  0
  9 21  1  0  0  0  0
 10 22  1  0  0  0  0
 11 23  1  0  0  0  0
 11 24  1  0  0  0  0
M  END
>  <PUBCHEM_COMPOUND_CID>
325

>  <PUBCHEM_CONFORMER_RMSD>
0.4

>  <PUBCHEM_CONFORMER_DIVERSEORDER>
3
5
2
6
1
4

>  <PUBCHEM_MMFF94_PARTIAL_CHARGES>
14
1 -0.68
10 -0.15
11 0.42
19 0.15
2 0.14
20 0.15
21 0.15
22 0.15
25 0.4
3 -0.14
6 -0.15
7 -0.15
8 -0.14
9 -0.15

>  <PUBCHEM_EFFECTIVE_ROTOR_COUNT>
2

>  <PUBCHEM_PHARMACOPHORE_FEATURES>
4
1 1 acceptor
1 1 donor
3 2 4 5 hydrophobe
6 3 6 7 8 9 10 rings

>  <PUBCHEM_HEAVY_ATOM_COUNT>
11

>  <PUBCHEM_ATOM_DEF_STEREO_COUNT>
0

>  <PUBCHEM_ATOM_UDEF_STEREO_COUNT>
0

>  <PUBCHEM_BOND_DEF_STEREO_COUNT>
0

>  <PUBCHEM_BOND_UDEF_STEREO_COUNT>
0

>  <PUBCHEM_ISOTOPIC_ATOM_COUNT>
0

>  <PUBCHEM_COMPONENT_COUNT>
1

>  <PUBCHEM_CACTVS_TAUTO_COUNT>
1

>  <PUBCHEM_CONFORMER_ID>
0000014500000003

>  <PUBCHEM_MMFF94_ENERGY>
25.1684

>  <PUBCHEM_FEATURE_SELFOVERLAP>
20.297

>  <PUBCHEM_SHAPE_FINGERPRINT>
10130415 120 18114176458277691648
10219947 1 18114180843528841621
10857977 72 18410846694105269968
11062470 55 15339121251287901891
11132069 177 18341607122852709673
11769659 78 15357690911843767897
12032990 46 18410301336564928247
12932764 1 17603578668628284884
14325111 11 18412263964751676765
14993402 34 18114185258565298655
15310529 11 16225759727055368454
16945 1 18335414673148771519
18186145 218 17989207023131628665
19026448 4 16702021997736413599
19026448 5 15626222429161392077
193761 8 17688306789920126239
20645464 45 18059561521224466914
20645476 183 17313395577217008822
23235685 24 18408602565208618447
23402539 116 18271794722821079508
23402655 69 18193536906423219725
23463225 33 18113891624720971018
23552423 10 17607808601598112644
369184 2 18335687369476060232
5084963 1 18272094876837368012

>  <PUBCHEM_SHAPE_MULTIPOLES>
220.51
5.63
1.21
0.94
1.05
0.02
0.1
-0.05
0.5
0.27
-0.05
-0.82
0.02
0.01

>  <PUBCHEM_SHAPE_SELFOVERLAP>
447.33

>  <PUBCHEM_SHAPE_VOLUME>
130.2

>  <PUBCHEM_COORDINATE_TYPE>
2
5
10

$$$$
326
 OpenBabel09242400493D

 23 23  0  0  0  0  0  0  0  0999 V2000
   -3.8343   -0.8359    0.0005 O   0  0  0  0  0  0  0  0  0  0  0  0
    2.5704    0.2250   -0.0003 C   0  0  0  0  0  0  0  0  0  0  0  0
    1.0789    0.2184    0.0003 C   0  0  0  0  0  0  0  0  0  0  0  0
    3.1616   -0.4351   -1.2603 C   0  0  0  0  0  0  0  0  0  0  0  0
    3.1628   -0.4324    1.2606 C   0  0  0  0  0  0  0  0  0  0  0  0
    0.3767    1.4236   -0.0005 C   0  0  0  0  0  0  0  0  0  0  0  0
    0.3864   -0.9923    0.0007 C   0  0  0  0  0  0  0  0  0  0  0  0
   -1.0182    1.4181   -0.0009 C   0  0  0  0  0  0  0  0  0  0  0  0
   -1.0085   -0.9979    0.0001 C   0  0  0  0  0  0  0  0  0  0  0  0
   -1.7107    0.2073   -0.0007 C   0  0  0  0  0  0  0  0  0  0  0  0
   -3.1651    0.2011    0.0006 C   0  0  0  0  0  0  0  0  0  0  0  0
    2.9206    1.2664   -0.0016 H   0  0  0  0  0  0  0  0  0  0  0  0
    2.9307   -1.5046   -1.3092 H   0  0  0  0  0  0  0  0  0  0  0  0
    4.2517   -0.3286   -1.2737 H   0  0  0  0  0  0  0  0  0  0  0  0
    2.7667    0.0353   -2.1677 H   0  0  0  0  0  0  0  0  0  0  0  0
    2.7688    0.0400    2.1673 H   0  0  0  0  0  0  0  0  0  0  0  0
    4.2529   -0.3262    1.2727 H   0  0  0  0  0  0  0  0  0  0  0  0
    2.9316   -1.5019    1.3121 H   0  0  0  0  0  0  0  0  0  0  0  0
    0.9005    2.3757   -0.0009 H   0  0  0  0  0  0  0  0  0  0  0  0
    0.9131   -1.9425    0.0012 H   0  0  0  0  0  0  0  0  0  0  0  0
   -1.5513    2.3653   -0.0012 H   0  0  0  0  0  0  0  0  0  0  0  0
   -1.5272   -1.9531    0.0006 H   0  0  0  0  0  0  0  0  0  0  0  0
   -3.6645    1.1849    0.0009 H   0  0  0  0  0  0  0  0  0  0  0  0
  1 11  2  0  0  0  0
  2  3  1  0  0  0  0
  2  4  1  0  0  0  0
  2  5  1  0  0  0  0
  2 12  1  0  0  0  0
  3  6  2  0  0  0  0
  3  7  1  0  0  0  0
  4 13  1  0  0  0  0
  4 14  1  0  0  0  0
  4 15  1  0  0  0  0
  5 16  1  0  0  0  0
  5 17  1  0  0  0  0
  5 18  1  0  0  0  0
  6  8  1  0  0  0  0
  6 19  1  0  0  0  0
  7  9  2  0  0  0  0
  7 20  1  0  0  0  0
  8 10  2  0  0  0  0
  8 21  1  0  0  0  0
  9 10  1  0  0  0  0
  9 22  1  0  0  0  0
 10 11  1  0  0  0  0
 11 23  1  0  0  0  0
M  END
>  <PUBCHEM_COMPOUND_CID>
326

>  <PUBCHEM_CONFORMER_RMSD>
0.4

>  <PUBCHEM_CONFORMER_DIVERSEORDER>
1
4
3
2

>  <PUBCHEM_MMFF94_PARTIAL_CHARGES>
14
1 -0.57
10 0.09
11 0.42
19 0.15
2 0.14
20 0.15
21 0.15
22 0.15
23 0.06
3 -0.14
6 -0.15
7 -0.15
8 -0.15
9 -0.15

>  <PUBCHEM_EFFECTIVE_ROTOR_COUNT>
2

>  <PUBCHEM_PHARMACOPHORE_FEATURES>
3
1 1 acceptor
3 2 4 5 hydrophobe
6 3 6 7 8 9 10 rings

>  <PUBCHEM_HEAVY_ATOM_COUNT>
11

>  <PUBCHEM_ATOM_DEF_STEREO_COUNT>
0

>  <PUBCHEM_ATOM_UDEF_STEREO_COUNT>
0

>  <PUBCHEM_BOND_DEF_STEREO_COUNT>
0

>  <PUBCHEM_BOND_UDEF_STEREO_COUNT>
0

>  <PUBCHEM_ISOTOPIC_ATOM_COUNT>
0

>  <PUBCHEM_COMPONENT_COUNT>
1

>  <PUBCHEM_CACTVS_TAUTO_COUNT>
1

>  <PUBCHEM_CONFORMER_ID>
0000014600000001

>  <PUBCHEM_MMFF94_ENERGY>
25.6077

>  <PUBCHEM_FEATURE_SELFOVERLAP>
15.223

>  <PUBCHEM_SHAPE_FINGERPRINT>
10130415 120 18260827111434820184
10219947 1 17989490735902234733
10857977 72 18342167864960936369
11206711 2 18334856078582657389
11543360 7 15647341895837041987
12032990 46 18341058479446050295
12932764 1 17967249810231939348
14325111 11 18410856546802516353
14993402 34 17821737142966818798
15310529 11 16732700545278182804
16945 1 18410575071830989509
19026448 4 16486975081206605313
19026448 5 16443345360304825861
193761 8 17689997830292832325
20645476 183 17531260499067433534
21293036 1 18334584563471283324
23380061 330 18343294890497298647
23402539 116 18271511044452266934
23402655 69 18195508317881807749
23463225 33 18188203204674047114
23552423 10 17898574434309844484
2748010 2 18121500425489242295
369184 2 18335128783198953160
5084963 1 18130796620303459208
7364860 26 18128259089317141136
8030462 33 17749117660191119852

>  <PUBCHEM_SHAPE_MULTIPOLES>
220.51
5.6
1.27
0.9
1.12
0.26
0
-1.27
0
0.34
0
-0.94
-0.11
0

>  <PUBCHEM_SHAPE_SELFOVERLAP>
451.901

>  <PUBCHEM_SHAPE_VOLUME>
128.1

>  <PUBCHEM_COORDINATE_TYPE>
2
5
10

$$$$
3314
 OpenBabel09242400493D

 24 24  0  0  0  0  0  0  0  0999 V2000
    2.0666    1.4819    0.5333 O   0  0  0  0  0  0  0  0  0  0  0  0
    3.0579   -0.9369   -0.4101 O   0  0  0  0  0  0  0  0  0  0  0  0
   -0.9919   -0.5156    0.4023 C   0  0  0  0  0  0  0  0  0  0  0  0
   -2.4471   -0.3684    0.6927 C   0  0  0  0  0  0  0  0  0  0  0  0
   -0.1282    0.5611    0.6039 C   0  0  0  0  0  0  0  0  0  0  0  0
    1.2330    0.4237    0.3316 C   0  0  0  0  0  0  0  0  0  0  0  0
   -0.4943   -1.7296   -0.0715 C   0  0  0  0  0  0  0  0  0  0  0  0
    1.7303   -0.7904   -0.1421 C   0  0  0  0  0  0  0  0  0  0  0  0
    0.8666   -1.8670   -0.3438 C   0  0  0  0  0  0  0  0  0  0  0  0
   -3.2408    0.1086   -0.4960 C   0  0  0  0  0  0  0  0  0  0  0  0
    2.2644    2.3700   -0.5652 C   0  0  0  0  0  0  0  0  0  0  0  0
   -3.9163    1.2627   -0.5351 C   0  0  0  0  0  0  0  0  0  0  0  0
   -2.8600   -1.3313    1.0209 H   0  0  0  0  0  0  0  0  0  0  0  0
   -2.5849    0.3063    1.5481 H   0  0  0  0  0  0  0  0  0  0  0  0
   -0.5103    1.5101    0.9727 H   0  0  0  0  0  0  0  0  0  0  0  0
   -1.1567   -2.5758   -0.2342 H   0  0  0  0  0  0  0  0  0  0  0  0
    1.2408   -2.8182   -0.7126 H   0  0  0  0  0  0  0  0  0  0  0  0
   -3.2737   -0.5407   -1.3677 H   0  0  0  0  0  0  0  0  0  0  0  0
    1.3175    2.8354   -0.8569 H   0  0  0  0  0  0  0  0  0  0  0  0
    2.7003    1.8386   -1.4172 H   0  0  0  0  0  0  0  0  0  0  0  0
    2.9576    3.1548   -0.2508 H   0  0  0  0  0  0  0  0  0  0  0  0
    3.2185   -1.8416   -0.7290 H   0  0  0  0  0  0  0  0  0  0  0  0
   -4.4748    1.5427   -1.4215 H   0  0  0  0  0  0  0  0  0  0  0  0
   -3.9234    1.9441    0.3084 H   0  0  0  0  0  0  0  0  0  0  0  0
  1  6  1  0  0  0  0
  1 11  1  0  0  0  0
  2  8  1  0  0  0  0
  2 22  1  0  0  0  0
  3  4  1  0  0  0  0
  3  5  2  0  0  0  0
  3  7  1  0  0  0  0
  4 10  1  0  0  0  0
  4 13  1  0  0  0  0
  4 14  1  0  0  0  0
  5  6  1  0  0  0  0
  5 15  1  0  0  0  0
  6  8  2  0  0  0  0
  7  9  2  0  0  0  0
  7 16  1  0  0  0  0
  8  9  1  0  0  0  0
  9 17  1  0  0  0  0
 10 12  2  0  0  0  0
 10 18  1  0  0  0  0
 11 19  1  0  0  0  0
 11 20  1  0  0  0  0
 11 21  1  0  0  0  0
 12 23  1  0  0  0  0
 12 24  1  0  0  0  0
M  END
>  <PUBCHEM_COMPOUND_CID>
3314

>  <PUBCHEM_CONFORMER_RMSD>
0.6

>  <PUBCHEM_CONFORMER_DIVERSEORDER>
1
7
6
2
8
5
9
3
4

>  <PUBCHEM_MMFF94_PARTIAL_CHARGES>
19
1 -0.36
10 -0.29
11 0.28
12 -0.3
15 0.15
16 0.15
17 0.15
18 0.15
2 -0.53
22 0.45
23 0.15
24 0.15
3 -0.14
4 0.28
5 -0.15
6 0.08
7 -0.15
8 0.08
9 -0.15

>  <PUBCHEM_EFFECTIVE_ROTOR_COUNT>
3

>  <PUBCHEM_PHARMACOPHORE_FEATURES>
4
1 1 acceptor
1 12 hydrophobe
1 2 donor
6 3 5 6 7 8 9 rings

>  <PUBCHEM_HEAVY_ATOM_COUNT>
12

>  <PUBCHEM_ATOM_DEF_STEREO_COUNT>
0

>  <PUBCHEM_ATOM_UDEF_STEREO_COUNT>
0

>  <PUBCHEM_BOND_DEF_STEREO_COUNT>
0

>  <PUBCHEM_BOND_UDEF_STEREO_COUNT>
0

>  <PUBCHEM_ISOTOPIC_ATOM_COUNT>
0

>  <PUBCHEM_COMPONENT_COUNT>
1

>  <PUBCHEM_CACTVS_TAUTO_COUNT>
3

>  <PUBCHEM_CONFORMER_ID>
00000CF200000001

>  <PUBCHEM_MMFF94_ENERGY>
35.5333

>  <PUBCHEM_FEATURE_SELFOVERLAP>
20.297

>  <PUBCHEM_SHAPE_FINGERPRINT>
10149128 76 18337389443461656621
10608611 8 18334857225544458337
11206711 2 18196667197755345276
12932764 1 17822010895982825227
13380535 21 18124049067588474250
13380536 305 18410294692102672318
13922767 16 18411693262403359352
14325111 11 18411698824639208651
14415576 193 18411135818914762949
14648413 74 18334581264783380107
14897335 6 18199180861978184152
14911166 2 18341620274069223390
14993402 34 18271250426248514014
15219456 202 18335425694382960795
15279308 100 18408609183779575958
16945 1 18341061713329765850
18186145 218 18343310262095515161
20201158 50 18339642222633464815
20233049 118 18115027390209799772
20606313 2 18339077069208690583
20653085 51 18407761439235382521
21040471 1 18055073417765351322
21130352 189 18335420140768837252
21524375 3 18265891556465708673
21947302 44 18335697230768457553
23402655 69 18198613334143792805
23559900 14 17699588123842943452
25 1 18336548192712757975
2748010 2 18198071467509626530
3060560 45 18199461082814265687
3071541 158 18336553733125559524

>  <PUBCHEM_SHAPE_MULTIPOLES>
235.22
5.24
2.13
0.81
3.94
0.52
-0.02
2.23
1.08
-1.36
0.38
0.13
0.07
0.33

>  <PUBCHEM_SHAPE_SELFOVERLAP>
481.034

>  <PUBCHEM_SHAPE_VOLUME>
136.6

>  <PUBCHEM_COORDINATE_TYPE>
2
5
10

$$$$
454
 OpenBabel09242400493D

 25 24  0  0  0  0  0  0  0  0999 V2000
    4.0917   -1.0335   -0.0155 O   0  0  0  0  0  0  0  0  0  0  0  0
   -1.1080   -0.3840   -0.0019 C   0  0  0  0  0  0  0  0  0  0  0  0
    0.0655    0.5983    0.0052 C   0  0  0  0  0  0  0  0  0  0  0  0
   -2.4480    0.3545   -0.0288 C   0  0  0  0  0  0  0  0  0  0  0  0
    1.4322   -0.0888    0.0633 C   0  0  0  0  0  0  0  0  0  0  0  0
   -3.6226   -0.6234   -0.0032 C   0  0  0  0  0  0  0  0  0  0  0  0
    2.6042    0.8862   -0.0030 C   0  0  0  0  0  0  0  0  0  0  0  0
   -4.9560    0.1070    0.0045 C   0  0  0  0  0  0  0  0  0  0  0  0
    3.9410    0.1836   -0.0206 C   0  0  0  0  0  0  0  0  0  0  0  0
   -1.0308   -1.0428   -0.8751 H   0  0  0  0  0  0  0  0  0  0  0  0
   -1.0554   -1.0203    0.8898 H   0  0  0  0  0  0  0  0  0  0  0  0
   -0.0294    1.2743    0.8641 H   0  0  0  0  0  0  0  0  0  0  0  0
    0.0156    1.2224   -0.8958 H   0  0  0  0  0  0  0  0  0  0  0  0
   -2.5073    0.9783   -0.9290 H   0  0  0  0  0  0  0  0  0  0  0  0
   -2.5131    1.0271    0.8353 H   0  0  0  0  0  0  0  0  0  0  0  0
    1.5017   -0.6819    0.9840 H   0  0  0  0  0  0  0  0  0  0  0  0
    1.5073   -0.8015   -0.7681 H   0  0  0  0  0  0  0  0  0  0  0  0
   -3.5770   -1.2825   -0.8779 H   0  0  0  0  0  0  0  0  0  0  0  0
   -3.5581   -1.2602    0.8867 H   0  0  0  0  0  0  0  0  0  0  0  0
    2.5427    1.4975   -0.9097 H   0  0  0  0  0  0  0  0  0  0  0  0
    2.5905    1.5562    0.8631 H   0  0  0  0  0  0  0  0  0  0  0  0
   -5.0465    0.7494    0.8863 H   0  0  0  0  0  0  0  0  0  0  0  0
   -5.7815   -0.6113    0.0215 H   0  0  0  0  0  0  0  0  0  0  0  0
   -5.0665    0.7308   -0.8882 H   0  0  0  0  0  0  0  0  0  0  0  0
    4.8173    0.8541   -0.0458 H   0  0  0  0  0  0  0  0  0  0  0  0
  1  9  2  0  0  0  0
  2  3  1  0  0  0  0
  2  4  1  0  0  0  0
  2 10  1  0  0  0  0
  2 11  1  0  0  0  0
  3  5  1  0  0  0  0
  3 12  1  0  0  0  0
  3 13  1  0  0  0  0
  4  6  1  0  0  0  0
  4 14  1  0  0  0  0
  4 15  1  0  0  0  0
  5  7  1  0  0  0  0
  5 16  1  0  0  0  0
  5 17  1  0  0  0  0
  6  8  1  0  0  0  0
  6 18  1  0  0  0  0
  6 19  1  0  0  0  0
  7  9  1  0  0  0  0
  7 20  1  0  0  0  0
  7 21  1  0  0  0  0
  8 22  1  0  0  0  0
  8 23  1  0  0  0  0
  8 24  1  0  0  0  0
  9 25  1  0  0  0  0
M  END
>  <PUBCHEM_COMPOUND_CID>
454

>  <PUBCHEM_CONFORMER_RMSD>
0.6

>  <PUBCHEM_CONFORMER_DIVERSEORDER>
1
104
10
105
78
118
4
96
24
114
58
2
116
46
17
85
21
117
35
68
111
70
82
19
106
9
108
50
100
45
3
119
25
115
59
81
76
23
63
107
8
101
91
11
33
49
94
110
26
89
7
56
98
65
103
88
112
14
18
32
77
86
99
66
13
109
84
41
73
62
97
64
113
95
54
60
71
102
20
79
90
51
36
12
87
48
34
29
61
38
43
27
39
72
80
44
57
52
31
92
69
47
42
75
40
83
53
93
16
22
30
6
37
28
5
55
67
15
74

>  <PUBCHEM_MMFF94_PARTIAL_CHARGES>
4
1 -0.57
25 0.06
7 0.06
9 0.45

>  <PUBCHEM_EFFECTIVE_ROTOR_COUNT>
6

>  <PUBCHEM_PHARMACOPHORE_FEATURES>
4
1 1 acceptor
1 8 hydrophobe
3 2 4 6 hydrophobe
3 3 5 7 hydrophobe

>  <PUBCHEM_HEAVY_ATOM_COUNT>
9

>  <PUBCHEM_ATOM_DEF_STEREO_COUNT>
0

>  <PUBCHEM_ATOM_UDEF_STEREO_COUNT>
0

>  <PUBCHEM_BOND_DEF_STEREO_COUNT>
0

>  <PUBCHEM_BOND_UDEF_STEREO_COUNT>
0

>  <PUBCHEM_ISOTOPIC_ATOM_COUNT>
0

>  <PUBCHEM_COMPONENT_COUNT>
1

>  <PUBCHEM_CACTVS_TAUTO_COUNT>
2

>  <PUBCHEM_CONFORMER_ID>
000001C600000001

>  <PUBCHEM_MMFF94_ENERGY>
-2.225

>  <PUBCHEM_FEATURE_SELFOVERLAP>
20.31

>  <PUBCHEM_SHAPE_FINGERPRINT>
11062470 55 9295291642288958373
11987891 38 18411984667170794119
12932764 1 16009295621509977001
14123238 8 10519984868174236201
14325111 11 18410575106143203136
17834076 25 13623527957069869389
190213 19 18260266369089281545
20645477 70 18409730625980344398
20719005 15 18410575089242895811
20828058 21 15502372326938385575
21119208 17 17894630361647024661
22485316 2 18343298197247622062
23402539 116 17275098419375347725
42 15 18413671305170009598
42788 4 18410292519012698861

>  <PUBCHEM_SHAPE_MULTIPOLES>
179.35
9.91
0.9
0.61
2.7
0.03
0
1.08
-0.06
-0.41
0
0.04
-0.01
0.01

>  <PUBCHEM_SHAPE_SELFOVERLAP>
315.988

>  <PUBCHEM_SHAPE_VOLUME>
117.3

>  <PUBCHEM_COORDINATE_TYPE>
2
5
10

$$$$
527271
 OpenBabel09242400493D

 43 42  0  0  1  0  0  0  0  0999 V2000
    1.3324   -0.6117   -0.3544 O   0  0  0  0  0  0  0  0  0  0  0  0
    2.7037   -2.0543    0.8110 O   0  0  0  0  0  0  0  0  0  0  0  0
   -0.9915   -0.1120    0.1182 C   0  0  2  0  0  0  0  0  0  0  0  0
   -2.1832   -0.5285    1.0105 C   0  0  0  0  0  0  0  0  0  0  0  0
    0.2580   -0.9090    0.5291 C   0  0  0  0  0  0  0  0  0  0  0  0
   -0.7416    1.3955    0.1302 C   0  0  0  0  0  0  0  0  0  0  0  0
    4.2958    0.4678   -0.6626 C   0  0  0  0  0  0  0  0  0  0  0  0
    3.5576   -0.8082   -1.0965 C   0  0  0  0  0  0  0  0  0  0  0  0
   -3.4740    0.1285    0.5987 C   0  0  0  0  0  0  0  0  0  0  0  0
    2.5122   -1.2592   -0.0988 C   0  0  0  0  0  0  0  0  0  0  0  0
    5.0851    0.2057    0.6214 C   0  0  0  0  0  0  0  0  0  0  0  0
    3.3236    1.6298   -0.4442 C   0  0  0  0  0  0  0  0  0  0  0  0
   -0.3994    2.0630    1.4337 C   0  0  0  0  0  0  0  0  0  0  0  0
   -4.4402   -0.3558   -0.2046 C   0  0  0  0  0  0  0  0  0  0  0  0
   -0.8265    2.1157   -1.0010 C   0  0  0  0  0  0  0  0  0  0  0  0
   -5.7090    0.3583   -0.5747 C   0  0  0  0  0  0  0  0  0  0  0  0
   -4.3030   -1.7256   -0.8158 C   0  0  0  0  0  0  0  0  0  0  0  0
   -1.2258   -0.4097   -0.9146 H   0  0  0  0  0  0  0  0  0  0  0  0
   -1.9873   -0.2677    2.0587 H   0  0  0  0  0  0  0  0  0  0  0  0
   -2.2856   -1.6195    1.0139 H   0  0  0  0  0  0  0  0  0  0  0  0
    0.5514   -0.6767    1.5599 H   0  0  0  0  0  0  0  0  0  0  0  0
    0.0411   -1.9829    0.4680 H   0  0  0  0  0  0  0  0  0  0  0  0
    4.9996    0.7421   -1.4578 H   0  0  0  0  0  0  0  0  0  0  0  0
    3.0731   -0.6606   -2.0696 H   0  0  0  0  0  0  0  0  0  0  0  0
    4.2638   -1.6354   -1.2378 H   0  0  0  0  0  0  0  0  0  0  0  0
   -3.6256    1.1255    1.0111 H   0  0  0  0  0  0  0  0  0  0  0  0
    5.6919    1.0806    0.8793 H   0  0  0  0  0  0  0  0  0  0  0  0
    5.7655   -0.6432    0.4958 H   0  0  0  0  0  0  0  0  0  0  0  0
    4.4313   -0.0028    1.4745 H   0  0  0  0  0  0  0  0  0  0  0  0
    2.6818    1.7749   -1.3193 H   0  0  0  0  0  0  0  0  0  0  0  0
    3.8802    2.5601   -0.2855 H   0  0  0  0  0  0  0  0  0  0  0  0
    2.6894    1.4816    0.4350 H   0  0  0  0  0  0  0  0  0  0  0  0
   -0.2234    3.1373    1.3091 H   0  0  0  0  0  0  0  0  0  0  0  0
    0.5108    1.6356    1.8639 H   0  0  0  0  0  0  0  0  0  0  0  0
   -1.2136    1.9506    2.1555 H   0  0  0  0  0  0  0  0  0  0  0  0
   -1.0723    1.6522   -1.9506 H   0  0  0  0  0  0  0  0  0  0  0  0
   -0.6513    3.1864   -1.0049 H   0  0  0  0  0  0  0  0  0  0  0  0
   -5.7725    1.3396   -0.0931 H   0  0  0  0  0  0  0  0  0  0  0  0
   -5.7597    0.5133   -1.6572 H   0  0  0  0  0  0  0  0  0  0  0  0
   -6.5808   -0.2252   -0.2618 H   0  0  0  0  0  0  0  0  0  0  0  0
   -4.9961   -2.4222   -0.3328 H   0  0  0  0  0  0  0  0  0  0  0  0
   -3.2975   -2.1476   -0.7575 H   0  0  0  0  0  0  0  0  0  0  0  0
   -4.5523   -1.6836   -1.8824 H   0  0  0  0  0  0  0  0  0  0  0  0
  1  5  1  0  0  0  0
  1 10  1  0  0  0  0
  2 10  2  0  0  0  0
  3  4  1  0  0  0  0
  3  5  1  0  0  0  0
  3  6  1  0  0  0  0
  3 18  1  6  0  0  0
  4  9  1  0  0  0  0
  4 19  1  0  0  0  0
  4 20  1  0  0  0  0
  5 21  1  0  0  0  0
  5 22  1  0  0  0  0
  6 13  1  0  0  0  0
  6 15  2  0  0  0  0
  7  8  1  0  0  0  0
  7 11  1  0  0  0  0
  7 12  1  0  0  0  0
  7 23  1  0  0  0  0
  8 10  1  0  0  0  0
  8 24  1  0  0  0  0
  8 25  1  0  0  0  0
  9 14  2  0  0  0  0
  9 26  1  0  0  0  0
 11 27  1  0  0  0  0
 11 28  1  0  0  0  0
 11 29  1  0  0  0  0
 12 30  1  0  0  0  0
 12 31  1  0  0  0  0
 12 32  1  0  0  0  0
 13 33  1  0  0  0  0
 13 34  1  0  0  0  0
 13 35  1  0  0  0  0
 14 16  1  0  0  0  0
 14 17  1  0  0  0  0
 15 36  1  0  0  0  0
 15 37  1  0  0  0  0
 16 38  1  0  0  0  0
 16 39  1  0  0  0  0
 16 40  1  0  0  0  0
 17 41  1  0  0  0  0
 17 42  1  0  0  0  0
 17 43  1  0  0  0  0
M  END
>  <PUBCHEM_COMPOUND_CID>
527271

>  <PUBCHEM_CONFORMER_RMSD>
1

>  <PUBCHEM_CONFORMER_DIVERSEORDER>
1
26
119
106
43
82
103
136
41
153
24
157
38
55
110
4
95
96
116
94
71
122
156
28
77
151
2
154
21
22
125
155
10
17
141
112
66
86
7
13
152
117
100
12
102
70
27
46
143
113
74
107
9
42
50
98
34
56
84
6
132
61
105
97
3
33
139
49
88
127
32
62
72
140
92
15
57
5
64
58
138
73
124
63
91
23
108
67
54
131
148
87
101
129
53
25
44
111
52
144
59
123
69
134
79
126
18
81
142
118
36
90
35
19
135
130
137
75
60
39
128
83
51
120
104
16
99
115
89
133
85
48
147
78
14
93
31
145
40
80
121
65
76
150
109
47
146
37
149
20
11
114
45
8
30
68
29

>  <PUBCHEM_MMFF94_PARTIAL_CHARGES>
17
1 -0.43
10 0.66
13 0.14
14 -0.28
15 -0.3
16 0.14
17 0.14
2 -0.57
26 0.15
3 0.14
36 0.15
37 0.15
4 0.14
5 0.28
6 -0.28
8 0.06
9 -0.29

>  <PUBCHEM_EFFECTIVE_ROTOR_COUNT>
8

>  <PUBCHEM_PHARMACOPHORE_FEATURES>
4
1 2 acceptor
3 14 16 17 hydrophobe
3 7 11 12 hydrophobe
4 3 4 6 9 hydrophobe

>  <PUBCHEM_HEAVY_ATOM_COUNT>
17

>  <PUBCHEM_ATOM_DEF_STEREO_COUNT>
0

>  <PUBCHEM_ATOM_UDEF_STEREO_COUNT>
1

>  <PUBCHEM_BOND_DEF_STEREO_COUNT>
0

>  <PUBCHEM_BOND_UDEF_STEREO_COUNT>
0

>  <PUBCHEM_ISOTOPIC_ATOM_COUNT>
0

>  <PUBCHEM_COMPONENT_COUNT>
1

>  <PUBCHEM_CACTVS_TAUTO_COUNT>
1

>  <PUBCHEM_CONFORMER_ID>
00080BA700000001

>  <PUBCHEM_MMFF94_ENERGY>
21.0838

>  <PUBCHEM_FEATURE_SELFOVERLAP>
20.297

>  <PUBCHEM_SHAPE_FINGERPRINT>
10090160 65 18187362142735229194
10366900 7 18114756975143115344
11401426 45 18334858324945218927
11806522 49 18271809081255400347
12592029 89 11025789890701487409
128620 24 18202562869666896062
12916754 54 18128542557168895358
13533116 47 17458898250536090954
13675066 3 10881398759566440839
14004511 7 11314310576440006883
14528608 73 18412266176607093436
14787075 74 18341614879637681200
15295992 7 12180145175871856943
15375358 24 17967820461056649179
167882 2 17899423265924668388
17802600 8 18335423452716208076
17834072 14 17967538986100959621
17834072 33 18202282549994222439
17959699 21 17967532346419123669
18222031 100 17346872352092177727
18769570 83 16588017983902447053
192875 21 17748832916818267324
19784866 9 11242235360610076221
200 152 18411983554879356766
21029758 11 18342177773909593137
23402539 116 18335416885120485894
23557571 272 17988642952618913760
23559900 14 17894355471208977162
26918003 58 17675926508092891954
2871803 45 18334019376198583740
312423 11 18267598905225233850
347723 3 16225763004542962493
34797466 226 16702026417289643609
34934 24 18333448772112690331
351380 180 18260266356737025696
465052 167 12679459815751361957
5283173 99 18042395847039872989
532947 4 18053946435295453608
5374978 207 18113898239065435594
537710 114 18411705404207593024
58051976 378 18271531918341985278
59755656 215 18343309137468692606
6913067 236 18261943124643373836

>  <PUBCHEM_SHAPE_MULTIPOLES>
338.11
11.01
2.03
1.13
3.01
0.48
-0.08
-1.9
2.19
-0.3
-0.03
-0.04
0.18
-0.38

>  <PUBCHEM_SHAPE_SELFOVERLAP>
641.301

>  <PUBCHEM_SHAPE_VOLUME>
209.4

>  <PUBCHEM_COORDINATE_TYPE>
2
5
10

$$$$
5280343
 OpenBabel09242400493D

 32 34  0  0  0  0  0  0  0  0999 V2000
   -0.3256   -0.8658   -0.1246 O   0  0  0  0  0  0  0  0  0  0  0  0
    0.7320    2.6650   -0.0692 O   0  0  0  0  0  0  0  0  0  0  0  0
   -4.4111    1.7247    0.1690 O   0  0  0  0  0  0  0  0  0  0  0  0
   -2.0405    2.8247    0.0849 O   0  0  0  0  0  0  0  0  0  0  0  0
   -4.5541   -3.0185    0.0059 O   0  0  0  0  0  0  0  0  0  0  0  0
    4.7260   -0.5543    2.0391 O   0  0  0  0  0  0  0  0  0  0  0  0
    5.9621   -0.7455   -0.4423 O   0  0  0  0  0  0  0  0  0  0  0  0
   -2.3363    0.4858    0.0234 C   0  0  0  0  0  0  0  0  0  0  0  0
   -1.6894   -0.7456   -0.0524 C   0  0  0  0  0  0  0  0  0  0  0  0
    0.4417    0.2883   -0.1097 C   0  0  0  0  0  0  0  0  0  0  0  0
    1.8880    0.0180   -0.1934 C   0  0  0  0  0  0  0  0  0  0  0  0
   -0.0582    1.5360   -0.0489 C   0  0  0  0  0  0  0  0  0  0  0  0
   -1.5283    1.7149    0.0259 C   0  0  0  0  0  0  0  0  0  0  0  0
   -3.7304    0.5474    0.0939 C   0  0  0  0  0  0  0  0  0  0  0  0
   -2.4335   -1.9257   -0.0588 C   0  0  0  0  0  0  0  0  0  0  0  0
   -3.8256   -1.8685    0.0117 C   0  0  0  0  0  0  0  0  0  0  0  0
    2.6365   -0.1435    0.9728 C   0  0  0  0  0  0  0  0  0  0  0  0
   -4.4724   -0.6343    0.0880 C   0  0  0  0  0  0  0  0  0  0  0  0
    2.5093   -0.0766   -1.4389 C   0  0  0  0  0  0  0  0  0  0  0  0
    4.0054   -0.3998    0.8936 C   0  0  0  0  0  0  0  0  0  0  0  0
    3.8783   -0.3325   -1.5181 C   0  0  0  0  0  0  0  0  0  0  0  0
    4.6263   -0.4943   -0.3518 C   0  0  0  0  0  0  0  0  0  0  0  0
   -1.9319   -2.8883   -0.1184 H   0  0  0  0  0  0  0  0  0  0  0  0
    2.1602   -0.0715    1.9482 H   0  0  0  0  0  0  0  0  0  0  0  0
   -5.5576   -0.5880    0.1428 H   0  0  0  0  0  0  0  0  0  0  0  0
    1.9395    0.0465   -2.3567 H   0  0  0  0  0  0  0  0  0  0  0  0
    4.3560   -0.4053   -2.4914 H   0  0  0  0  0  0  0  0  0  0  0  0
    1.6675    2.4118   -0.1228 H   0  0  0  0  0  0  0  0  0  0  0  0
   -3.7963    2.4741    0.1701 H   0  0  0  0  0  0  0  0  0  0  0  0
   -5.4988   -2.7937    0.0605 H   0  0  0  0  0  0  0  0  0  0  0  0
    5.6637   -0.3751    1.8626 H   0  0  0  0  0  0  0  0  0  0  0  0
    6.2712   -1.1700    0.3741 H   0  0  0  0  0  0  0  0  0  0  0  0
  1  9  1  0  0  0  0
  1 10  1  0  0  0  0
  2 12  1  0  0  0  0
  2 28  1  0  0  0  0
  3 14  1  0  0  0  0
  3 29  1  0  0  0  0
  4 13  2  0  0  0  0
  5 16  1  0  0  0  0
  5 30  1  0  0  0  0
  6 20  1  0  0  0  0
  6 31  1  0  0  0  0
  7 22  1  0  0  0  0
  7 32  1  0  0  0  0
  8  9  1  0  0  0  0
  8 13  1  0  0  0  0
  8 14  2  0  0  0  0
  9 15  2  0  0  0  0
 10 11  1  0  0  0  0
 10 12  2  0  0  0  0
 11 17  2  0  0  0  0
 11 19  1  0  0  0  0
 12 13  1  0  0  0  0
 14 18  1  0  0  0  0
 15 16  1  0  0  0  0
 15 23  1  0  0  0  0
 16 18  2  0  0  0  0
 17 20  1  0  0  0  0
 17 24  1  0  0  0  0
 18 25  1  0  0  0  0
 19 21  2  0  0  0  0
 19 26  1  0  0  0  0
 20 22  2  0  0  0  0
 21 22  1  0  0  0  0
 21 27  1  0  0  0  0
M  END
>  <PUBCHEM_COMPOUND_CID>
5280343

>  <PUBCHEM_CONFORMER_RMSD>
0.6

>  <PUBCHEM_CONFORMER_DIVERSEORDER>
2
3
4
1

>  <PUBCHEM_MMFF94_PARTIAL_CHARGES>
32
1 -0.16
10 0.05
11 0.03
12 0.09
13 0.47
14 0.08
15 -0.15
16 0.08
17 -0.15
18 -0.15
19 -0.15
2 -0.53
20 0.08
21 -0.15
22 0.08
23 0.15
24 0.15
25 0.15
26 0.15
27 0.15
28 0.45
29 0.45
3 -0.53
30 0.45
31 0.45
32 0.45
4 -0.57
5 -0.53
6 -0.53
7 -0.53
8 0.09
9 0.08

>  <PUBCHEM_EFFECTIVE_ROTOR_COUNT>
1

>  <PUBCHEM_PHARMACOPHORE_FEATURES>
10
1 1 acceptor
1 2 donor
1 3 donor
1 4 acceptor
1 5 donor
1 6 donor
1 7 donor
6 1 8 9 10 12 13 rings
6 11 17 19 20 21 22 rings
6 8 9 14 15 16 18 rings

>  <PUBCHEM_HEAVY_ATOM_COUNT>
22

>  <PUBCHEM_ATOM_DEF_STEREO_COUNT>
0

>  <PUBCHEM_ATOM_UDEF_STEREO_COUNT>
0

>  <PUBCHEM_BOND_DEF_STEREO_COUNT>
0

>  <PUBCHEM_BOND_UDEF_STEREO_COUNT>
0

>  <PUBCHEM_ISOTOPIC_ATOM_COUNT>
0

>  <PUBCHEM_COMPONENT_COUNT>
1

>  <PUBCHEM_CACTVS_TAUTO_COUNT>
435

>  <PUBCHEM_CONFORMER_ID>
0050925700000002

>  <PUBCHEM_MMFF94_ENERGY>
67.9013

>  <PUBCHEM_FEATURE_SELFOVERLAP>
50.781

>  <PUBCHEM_SHAPE_FINGERPRINT>
10062212 137 18187366532376097179
10319926 262 18198887155530876618
10411042 1 18267306624464364199
10616163 171 18411422791027885687
11045977 3 17988636389587437640
11046707 91 18409731781088721831
11132069 177 18342179934140791333
11370993 144 16773248296511877579
11552529 35 14260485002790182821
12107183 9 17540809500193799274
12236239 1 17821733810620706086
12363563 72 18339368581624426103
12553582 1 18408889555155666595
13140716 1 18340771541661452937
13288520 33 18411422821308590263
13675066 3 17775002409702089546
14386348 63 17846783983788497886
15042514 8 18410580587265310395
15099037 37 18343299271068437565
15196674 1 18411421755945834109
16752209 62 18334289868595986291
16945 1 18411422778686062261
17349148 13 17748826302436736570
17804303 29 18413671322582201833
1813 80 17458069226905034038
18186145 218 12612750207294412564
18222031 100 18270959167125326031
18681886 176 18336270124256880678
19141452 34 17775287205258622471
200 152 16660645137605500828
20028762 73 17986393510885979071
21033648 29 17131540674461138658
21065201 7 18342460283973285510
21267235 1 18337399322303363739
21728266 224 18261944198090091298
2297311 6 18342468031962295414
23366157 5 17970912403723827780
23402539 116 18410573976646049422
23557571 272 18129948871279935700
23559900 14 18200040530026961414
25147074 1 18264788703960466501
2838139 119 14691740792871930569
3004659 81 18186521037688015310
312423 11 18190191263647082733
335352 9 18410856577895734581
474 4 17096946861146042884
5104073 3 18340771541286848633
573450 72 18260825981905919954
59755656 215 18268151959405414926
602551 16 18413105061377832954
67856867 119 18188777270541336308
7495541 125 18131914871464346032
77492 1 17676776383674054532
7970288 3 18338799051639604983
9709674 26 18121220046008890539

>  <PUBCHEM_SHAPE_MULTIPOLES>
411.66
10.99
2.34
1.06
6.01
0.56
0.11
-4.89
0.67
-3.56
0.02
1.76
-0.17
-0.17

>  <PUBCHEM_SHAPE_SELFOVERLAP>
923.873

>  <PUBCHEM_SHAPE_VOLUME>
216

>  <PUBCHEM_COORDINATE_TYPE>
2
5
10

$$$$
5280443
 OpenBabel09242400493D

 30 32  0  0  0  0  0  0  0  0999 V2000
   -0.0681    0.7800   -0.0476 O   0  0  0  0  0  0  0  0  0  0  0  0
   -4.1237   -1.8702    0.1093 O   0  0  0  0  0  0  0  0  0  0  0  0
   -1.7265   -2.9343    0.1829 O   0  0  0  0  0  0  0  0  0  0  0  0
   -4.3310    2.8645   -0.1990 O   0  0  0  0  0  0  0  0  0  0  0  0
    6.2534    0.6490   -0.0391 O   0  0  0  0  0  0  0  0  0  0  0  0
   -2.0651   -0.6003    0.0351 C   0  0  0  0  0  0  0  0  0  0  0  0
   -1.4328    0.6394   -0.0429 C   0  0  0  0  0  0  0  0  0  0  0  0
    0.7138   -0.3621    0.0367 C   0  0  0  0  0  0  0  0  0  0  0  0
    2.1664   -0.0973    0.0176 C   0  0  0  0  0  0  0  0  0  0  0  0
   -1.2389   -1.8145    0.1154 C   0  0  0  0  0  0  0  0  0  0  0  0
    0.2238   -1.6099    0.1094 C   0  0  0  0  0  0  0  0  0  0  0  0
   -3.4593   -0.6835    0.0353 C   0  0  0  0  0  0  0  0  0  0  0  0
   -2.1933    1.8062   -0.1218 C   0  0  0  0  0  0  0  0  0  0  0  0
   -3.5862    1.7275   -0.1217 C   0  0  0  0  0  0  0  0  0  0  0  0
   -4.2176    0.4853   -0.0433 C   0  0  0  0  0  0  0  0  0  0  0  0
    3.0430   -1.0335   -0.5363 C   0  0  0  0  0  0  0  0  0  0  0  0
    2.6702    1.0909    0.5521 C   0  0  0  0  0  0  0  0  0  0  0  0
    4.4151   -0.7831   -0.5550 C   0  0  0  0  0  0  0  0  0  0  0  0
    4.0423    1.3414    0.5331 C   0  0  0  0  0  0  0  0  0  0  0  0
    4.9148    0.4043   -0.0203 C   0  0  0  0  0  0  0  0  0  0  0  0
    0.8368   -2.5001    0.1876 H   0  0  0  0  0  0  0  0  0  0  0  0
   -1.7039    2.7750   -0.1831 H   0  0  0  0  0  0  0  0  0  0  0  0
   -5.3033    0.4227   -0.0434 H   0  0  0  0  0  0  0  0  0  0  0  0
    2.6918   -1.9600   -0.9827 H   0  0  0  0  0  0  0  0  0  0  0  0
    2.0141    1.8350    0.9973 H   0  0  0  0  0  0  0  0  0  0  0  0
    5.0842   -1.5187   -0.9936 H   0  0  0  0  0  0  0  0  0  0  0  0
    4.4259    2.2675    0.9526 H   0  0  0  0  0  0  0  0  0  0  0  0
   -3.4973   -2.6081    0.1620 H   0  0  0  0  0  0  0  0  0  0  0  0
   -5.2737    2.6256   -0.1869 H   0  0  0  0  0  0  0  0  0  0  0  0
    6.7054   -0.1037   -0.4576 H   0  0  0  0  0  0  0  0  0  0  0  0
  1  7  1  0  0  0  0
  1  8  1  0  0  0  0
  2 12  1  0  0  0  0
  2 28  1  0  0  0  0
  3 10  2  0  0  0  0
  4 14  1  0  0  0  0
  4 29  1  0  0  0  0
  5 20  1  0  0  0  0
  5 30  1  0  0  0  0
  6  7  1  0  0  0  0
  6 10  1  0  0  0  0
  6 12  2  0  0  0  0
  7 13  2  0  0  0  0
  8  9  1  0  0  0  0
  8 11  2  0  0  0  0
  9 16  2  0  0  0  0
  9 17  1  0  0  0  0
 10 11  1  0  0  0  0
 11 21  1  0  0  0  0
 12 15  1  0  0  0  0
 13 14  1  0  0  0  0
 13 22  1  0  0  0  0
 14 15  2  0  0  0  0
 15 23  1  0  0  0  0
 16 18  1  0  0  0  0
 16 24  1  0  0  0  0
 17 19  2  0  0  0  0
 17 25  1  0  0  0  0
 18 20  2  0  0  0  0
 18 26  1  0  0  0  0
 19 20  1  0  0  0  0
 19 27  1  0  0  0  0
M  END
>  <PUBCHEM_COMPOUND_CID>
5280443

>  <PUBCHEM_CONFORMER_RMSD>
0.6

>  <PUBCHEM_CONFORMER_DIVERSEORDER>
1

>  <PUBCHEM_MMFF94_PARTIAL_CHARGES>
30
1 -0.16
10 0.47
11 -0.14
12 0.08
13 -0.15
14 0.08
15 -0.15
16 -0.15
17 -0.15
18 -0.15
19 -0.15
2 -0.53
20 0.08
21 0.15
22 0.15
23 0.15
24 0.15
25 0.15
26 0.15
27 0.15
28 0.45
29 0.45
3 -0.57
30 0.45
4 -0.53
5 -0.53
6 0.09
7 0.08
8 0.05
9 0.03

>  <PUBCHEM_EFFECTIVE_ROTOR_COUNT>
1

>  <PUBCHEM_PHARMACOPHORE_FEATURES>
8
1 1 acceptor
1 2 donor
1 3 acceptor
1 4 donor
1 5 donor
6 1 6 7 8 10 11 rings
6 6 7 12 13 14 15 rings
6 9 16 17 18 19 20 rings

>  <PUBCHEM_HEAVY_ATOM_COUNT>
20

>  <PUBCHEM_ATOM_DEF_STEREO_COUNT>
0

>  <PUBCHEM_ATOM_UDEF_STEREO_COUNT>
0

>  <PUBCHEM_BOND_DEF_STEREO_COUNT>
0

>  <PUBCHEM_BOND_UDEF_STEREO_COUNT>
0

>  <PUBCHEM_ISOTOPIC_ATOM_COUNT>
0

>  <PUBCHEM_COMPONENT_COUNT>
1

>  <PUBCHEM_CACTVS_TAUTO_COUNT>
57

>  <PUBCHEM_CONFORMER_ID>
005092BB00000001

>  <PUBCHEM_MMFF94_ENERGY>
60.7436

>  <PUBCHEM_FEATURE_SELFOVERLAP>
40.625

>  <PUBCHEM_SHAPE_FINGERPRINT>
10014705 185 18335983090743610973
10319926 262 18339344337187947850
10411042 1 17833271196427205891
10493431 412 18339369544277550625
10498660 4 18336260146151624709
10608611 8 18342173405853837512
10646746 165 18410292501880224548
11315181 36 17967532415338923724
12107183 9 17973996255225508682
12173636 292 18409726227717107541
12236239 1 17458341966376888130
12390115 104 18270696268119625369
12403259 415 18202279234227041088
12500047 106 18411979165633848254
13073987 5 18334573538601782738
13140716 1 17974859676764465403
13544592 145 18269848531875060550
14508225 48 18124582335750861655
14790565 3 17908712730609502257
15042514 8 18192436496683379403
15196674 1 18411138009184468990
15375358 24 18272089392275024390
17844677 252 18338524131077601056
18186145 218 18201727210401115800
200 152 17060622204808618226
20510252 161 18342459253144016673
20645477 56 18410013234284757832
20645477 70 17203058396143606462
21033648 29 18271516554985427096
21065198 57 18411699920035301594
21236236 1 18412826893710328947
21267235 1 18337116777299593123
21279426 13 18269277859449011198
21421861 104 17750502976618702298
23402539 116 18412538829647092654
23402655 69 18131067100338114972
23557571 272 18342746247148492668
23559900 14 18271807861775124550
245318 6 16448986100328701468
283562 15 18410291424461079675
2916195 48 18342730849902058064
3004659 81 18335425613612532158
335352 9 18267022748231475478
350125 39 18410298038462750009
3545911 37 18342460348455732712
4028521 119 18341892965631935697
4214541 1 18411419514231212472
474 4 16879077545412114420
495365 180 17346021334593014002
5104073 3 18410011005465809410
542803 24 17530686524359763644
559249 180 18337386046670377618
633830 44 18199743644401676445
69090 78 18272086119177836790
77779 3 18412263930592437412
9709674 26 18342463655380539086

>  <PUBCHEM_SHAPE_MULTIPOLES>
382.24
10.96
2.41
0.66
9.09
0.24
0
-3.75
0.48
-2.84
-0.06
0.21
-0.01
0.71

>  <PUBCHEM_SHAPE_SELFOVERLAP>
856.39

>  <PUBCHEM_SHAPE_VOLUME>
201.3

>  <PUBCHEM_COORDINATE_TYPE>
2
5
10

$$$$
5280666
 OpenBabel09242400493D

 34 36  0  0  0  0  0  0  0  0999 V2000
   -0.4465    0.5696   -0.2647 O   0  0  0  0  0  0  0  0  0  0  0  0
   -4.7383   -1.5556    0.4831 O   0  0  0  0  0  0  0  0  0  0  0  0
    4.3563    1.9082    0.3518 O   0  0  0  0  0  0  0  0  0  0  0  0
   -2.4654   -2.8610    0.6034 O   0  0  0  0  0  0  0  0  0  0  0  0
   -4.4695    3.0770   -0.5279 O   0  0  0  0  0  0  0  0  0  0  0  0
    5.8166   -0.2837   -0.5370 O   0  0  0  0  0  0  0  0  0  0  0  0
   -2.5673   -0.5501    0.1203 C   0  0  0  0  0  0  0  0  0  0  0  0
    0.2158   -0.6288   -0.0457 C   0  0  0  0  0  0  0  0  0  0  0  0
   -1.8153    0.5859   -0.1742 C   0  0  0  0  0  0  0  0  0  0  0  0
    1.6839   -0.5350   -0.1733 C   0  0  0  0  0  0  0  0  0  0  0  0
   -1.8689   -1.8250    0.3442 C   0  0  0  0  0  0  0  0  0  0  0  0
   -0.3962   -1.7895    0.2381 C   0  0  0  0  0  0  0  0  0  0  0  0
   -3.9597   -0.4748    0.1990 C   0  0  0  0  0  0  0  0  0  0  0  0
   -2.4533    1.8071   -0.3927 C   0  0  0  0  0  0  0  0  0  0  0  0
    2.3422    0.6536    0.1517 C   0  0  0  0  0  0  0  0  0  0  0  0
    2.4212   -1.6345   -0.6200 C   0  0  0  0  0  0  0  0  0  0  0  0
   -3.8440    1.8866   -0.3148 C   0  0  0  0  0  0  0  0  0  0  0  0
   -4.5954    0.7481   -0.0196 C   0  0  0  0  0  0  0  0  0  0  0  0
    3.7290    0.7422    0.0310 C   0  0  0  0  0  0  0  0  0  0  0  0
    3.8080   -1.5459   -0.7408 C   0  0  0  0  0  0  0  0  0  0  0  0
    4.4619   -0.3575   -0.4152 C   0  0  0  0  0  0  0  0  0  0  0  0
    4.7848    2.0631    1.7033 C   0  0  0  0  0  0  0  0  0  0  0  0
    0.1243   -2.7223    0.4210 H   0  0  0  0  0  0  0  0  0  0  0  0
   -1.8704    2.6953   -0.6230 H   0  0  0  0  0  0  0  0  0  0  0  0
    1.7900    1.5203    0.5085 H   0  0  0  0  0  0  0  0  0  0  0  0
    1.9474   -2.5702   -0.9043 H   0  0  0  0  0  0  0  0  0  0  0  0
   -5.6795    0.8088    0.0412 H   0  0  0  0  0  0  0  0  0  0  0  0
    4.3666   -2.4085   -1.0941 H   0  0  0  0  0  0  0  0  0  0  0  0
   -4.1901   -2.3440    0.6172 H   0  0  0  0  0  0  0  0  0  0  0  0
   -5.4293    2.9501   -0.4353 H   0  0  0  0  0  0  0  0  0  0  0  0
    6.1530   -1.1383   -0.8571 H   0  0  0  0  0  0  0  0  0  0  0  0
    5.5047    1.2834    1.9716 H   0  0  0  0  0  0  0  0  0  0  0  0
    3.9274    2.0331    2.3830 H   0  0  0  0  0  0  0  0  0  0  0  0
    5.2727    3.0370    1.7985 H   0  0  0  0  0  0  0  0  0  0  0  0
  1  8  1  0  0  0  0
  1  9  1  0  0  0  0
  2 13  1  0  0  0  0
  2 29  1  0  0  0  0
  3 19  1  0  0  0  0
  3 22  1  0  0  0  0
  4 11  2  0  0  0  0
  5 17  1  0  0  0  0
  5 30  1  0  0  0  0
  6 21  1  0  0  0  0
  6 31  1  0  0  0  0
  7  9  1  0  0  0  0
  7 11  1  0  0  0  0
  7 13  2  0  0  0  0
  8 10  1  0  0  0  0
  8 12  2  0  0  0  0
  9 14  2  0  0  0  0
 10 15  2  0  0  0  0
 10 16  1  0  0  0  0
 11 12  1  0  0  0  0
 12 23  1  0  0  0  0
 13 18  1  0  0  0  0
 14 17  1  0  0  0  0
 14 24  1  0  0  0  0
 15 19  1  0  0  0  0
 15 25  1  0  0  0  0
 16 20  2  0  0  0  0
 16 26  1  0  0  0  0
 17 18  2  0  0  0  0
 18 27  1  0  0  0  0
 19 21  2  0  0  0  0
 20 21  1  0  0  0  0
 20 28  1  0  0  0  0
 22 32  1  0  0  0  0
 22 33  1  0  0  0  0
 22 34  1  0  0  0  0
M  END
>  <PUBCHEM_COMPOUND_CID>
5280666

>  <PUBCHEM_CONFORMER_RMSD>
0.6

>  <PUBCHEM_CONFORMER_DIVERSEORDER>
1
2
6
4
3
5

>  <PUBCHEM_MMFF94_PARTIAL_CHARGES>
31
1 -0.16
10 0.03
11 0.47
12 -0.14
13 0.08
14 -0.15
15 -0.15
16 -0.15
17 0.08
18 -0.15
19 0.08
2 -0.53
20 -0.15
21 0.08
22 0.28
23 0.15
24 0.15
25 0.15
26 0.15
27 0.15
28 0.15
29 0.45
3 -0.36
30 0.45
31 0.45
4 -0.57
5 -0.53
6 -0.53
7 0.09
8 0.05
9 0.08

>  <PUBCHEM_EFFECTIVE_ROTOR_COUNT>
2

>  <PUBCHEM_PHARMACOPHORE_FEATURES>
9
1 1 acceptor
1 2 donor
1 3 acceptor
1 4 acceptor
1 5 donor
1 6 donor
6 1 7 8 9 11 12 rings
6 10 15 16 19 20 21 rings
6 7 9 13 14 17 18 rings

>  <PUBCHEM_HEAVY_ATOM_COUNT>
22

>  <PUBCHEM_ATOM_DEF_STEREO_COUNT>
0

>  <PUBCHEM_ATOM_UDEF_STEREO_COUNT>
0

>  <PUBCHEM_BOND_DEF_STEREO_COUNT>
0

>  <PUBCHEM_BOND_UDEF_STEREO_COUNT>
0

>  <PUBCHEM_ISOTOPIC_ATOM_COUNT>
0

>  <PUBCHEM_COMPONENT_COUNT>
1

>  <PUBCHEM_CACTVS_TAUTO_COUNT>
69

>  <PUBCHEM_CONFORMER_ID>
0050939A00000001

>  <PUBCHEM_MMFF94_ENERGY>
77.202

>  <PUBCHEM_FEATURE_SELFOVERLAP>
45.7

>  <PUBCHEM_SHAPE_FINGERPRINT>
10319926 262 18335971026808029738
10411042 1 17903083562246810779
10498660 4 18262513693900803653
10608611 8 18412263947803864174
10646746 165 18407760335312794774
11112241 14 16484700333351614328
11405975 8 18410572869045718330
11595378 159 17095796634011535660
12107183 9 17827348878753958618
12173636 292 18335137566607624759
12236239 1 16950566592858620358
12390115 104 18268444447015706817
12403259 415 18342459248754343880
12507560 40 18413107290507784620
12788726 201 16665173119899985194
13081056 2 18341896311638117696
13140716 1 17900273188987354339
13402501 40 18412823590411486680
13544592 145 18267596710370429918
14790565 3 17980486655290642841
15042514 8 18189627218915546195
15196674 1 18410013217057240559
15375358 24 18413388730803191966
15961568 22 17969504986571259532
17844677 252 18411708694152613192
19433438 28 18409732876052181378
200 152 17418095399197798302
20510252 161 18412267225074946913
20645477 56 18335987488837224543
20645477 70 17489596653822296086
21033648 29 18410569578599915056
21065198 57 18410294713946923382
21065201 7 18187085048725218402
21267235 1 18335714856982359695
21279426 13 18194688064098949222
21421861 104 17459742611205386626
21859007 373 17389642121557013020
23227448 37 18340484568540774669
23402539 116 18410289190202048319
23557571 272 18410303522713558846
23559900 14 18198622129841442222
245318 6 16448707915075315564
3004659 81 18188781518649230638
335352 9 18192994820761480590
3545911 37 18411705382959291622
4214541 1 18409451366647102036
495365 180 17774991385185763634
5104073 3 18409168779321517147
5283173 99 18410573963703319905
633830 44 18198334062110628869
77779 3 18411140212191332198
9709674 26 18412551998038557790
9981440 41 18260545619774502907
9995097 60 18343301483599074154

>  <PUBCHEM_SHAPE_MULTIPOLES>
417.53
11.88
2.72
0.86
5.18
0.46
0.18
4.44
0.27
-1.58
0.3
0.66
0.19
2.24

>  <PUBCHEM_SHAPE_SELFOVERLAP>
928.588

>  <PUBCHEM_SHAPE_VOLUME>
222.1

>  <PUBCHEM_COORDINATE_TYPE>
2
5
10

$$$$
5280699
 OpenBabel09242400493D

 42 44  0  0  0  0  0  0  0  0999 V2000
    0.2101    0.8454    0.0561 O   0  0  0  0  0  0  0  0  0  0  0  0
    1.6213   -2.5282    0.5203 O   0  0  0  0  0  0  0  0  0  0  0  0
   -5.2424   -0.0230   -0.0781 O   0  0  0  0  0  0  0  0  0  0  0  0
   -4.2055    2.5277   -0.3247 O   0  0  0  0  0  0  0  0  0  0  0  0
   -3.5799   -2.1618    0.2369 O   0  0  0  0  0  0  0  0  0  0  0  0
   -1.1210   -2.9864    0.4436 O   0  0  0  0  0  0  0  0  0  0  0  0
    5.2607    0.7122   -2.1279 O   0  0  0  0  0  0  0  0  0  0  0  0
    6.4790    1.4030    0.2731 O   0  0  0  0  0  0  0  0  0  0  0  0
   -1.6531   -0.7073    0.1530 C   0  0  0  0  0  0  0  0  0  0  0  0
   -1.1345    0.5797    0.0282 C   0  0  0  0  0  0  0  0  0  0  0  0
    1.0908   -0.2146    0.2032 C   0  0  0  0  0  0  0  0  0  0  0  0
    0.7203   -1.5006    0.3426 C   0  0  0  0  0  0  0  0  0  0  0  0
   -0.7241   -1.8351    0.3231 C   0  0  0  0  0  0  0  0  0  0  0  0
   -3.0338   -0.9182    0.1185 C   0  0  0  0  0  0  0  0  0  0  0  0
    2.5023    0.2087    0.2180 C   0  0  0  0  0  0  0  0  0  0  0  0
   -1.9949    1.6662   -0.1317 C   0  0  0  0  0  0  0  0  0  0  0  0
   -3.8922    0.1701   -0.0422 C   0  0  0  0  0  0  0  0  0  0  0  0
   -3.3740    1.4598   -0.1670 C   0  0  0  0  0  0  0  0  0  0  0  0
    3.2274    0.2630   -0.9727 C   0  0  0  0  0  0  0  0  0  0  0  0
    3.1145    0.5553    1.4229 C   0  0  0  0  0  0  0  0  0  0  0  0
    4.5634    0.6635   -0.9586 C   0  0  0  0  0  0  0  0  0  0  0  0
    4.4504    0.9558    1.4371 C   0  0  0  0  0  0  0  0  0  0  0  0
    5.1749    1.0099    0.2462 C   0  0  0  0  0  0  0  0  0  0  0  0
    2.0231   -3.0665   -0.7250 C   0  0  0  0  0  0  0  0  0  0  0  0
   -5.8276   -0.2582   -1.3562 C   0  0  0  0  0  0  0  0  0  0  0  0
   -4.6552    3.1793    0.8614 C   0  0  0  0  0  0  0  0  0  0  0  0
   -1.5924    2.6714   -0.2298 H   0  0  0  0  0  0  0  0  0  0  0  0
    2.7568    0.0053   -1.9190 H   0  0  0  0  0  0  0  0  0  0  0  0
    2.5625    0.5185    2.3590 H   0  0  0  0  0  0  0  0  0  0  0  0
    4.9210    1.2245    2.3789 H   0  0  0  0  0  0  0  0  0  0  0  0
   -2.8880   -2.8336    0.3312 H   0  0  0  0  0  0  0  0  0  0  0  0
    2.5435   -2.3391   -1.3511 H   0  0  0  0  0  0  0  0  0  0  0  0
    1.1677   -3.4795   -1.2716 H   0  0  0  0  0  0  0  0  0  0  0  0
    2.7176   -3.8888   -0.5274 H   0  0  0  0  0  0  0  0  0  0  0  0
   -5.6679    0.5997   -2.0169 H   0  0  0  0  0  0  0  0  0  0  0  0
   -6.9035   -0.3976   -1.2197 H   0  0  0  0  0  0  0  0  0  0  0  0
   -5.4130   -1.1635   -1.8105 H   0  0  0  0  0  0  0  0  0  0  0  0
   -5.2191    2.4854    1.4927 H   0  0  0  0  0  0  0  0  0  0  0  0
   -5.3142    4.0023    0.5714 H   0  0  0  0  0  0  0  0  0  0  0  0
   -3.8069    3.5896    1.4184 H   0  0  0  0  0  0  0  0  0  0  0  0
    6.0165    1.3140   -2.0334 H   0  0  0  0  0  0  0  0  0  0  0  0
    6.9377    1.0693   -0.5147 H   0  0  0  0  0  0  0  0  0  0  0  0
  1 10  1  0  0  0  0
  1 11  1  0  0  0  0
  2 12  1  0  0  0  0
  2 24  1  0  0  0  0
  3 17  1  0  0  0  0
  3 25  1  0  0  0  0
  4 18  1  0  0  0  0
  4 26  1  0  0  0  0
  5 14  1  0  0  0  0
  5 31  1  0  0  0  0
  6 13  2  0  0  0  0
  7 21  1  0  0  0  0
  7 41  1  0  0  0  0
  8 23  1  0  0  0  0
  8 42  1  0  0  0  0
  9 10  1  0  0  0  0
  9 13  1  0  0  0  0
  9 14  2  0  0  0  0
 10 16  2  0  0  0  0
 11 12  2  0  0  0  0
 11 15  1  0  0  0  0
 12 13  1  0  0  0  0
 14 17  1  0  0  0  0
 15 19  2  0  0  0  0
 15 20  1  0  0  0  0
 16 18  1  0  0  0  0
 16 27  1  0  0  0  0
 17 18  2  0  0  0  0
 19 21  1  0  0  0  0
 19 28  1  0  0  0  0
 20 22  2  0  0  0  0
 20 29  1  0  0  0  0
 21 23  2  0  0  0  0
 22 23  1  0  0  0  0
 22 30  1  0  0  0  0
 24 32  1  0  0  0  0
 24 33  1  0  0  0  0
 24 34  1  0  0  0  0
 25 35  1  0  0  0  0
 25 36  1  0  0  0  0
 25 37  1  0  0  0  0
 26 38  1  0  0  0  0
 26 39  1  0  0  0  0
 26 40  1  0  0  0  0
M  END
>  <PUBCHEM_COMPOUND_CID>
5280699

>  <PUBCHEM_CONFORMER_RMSD>
0.8

>  <PUBCHEM_CONFORMER_DIVERSEORDER>
1
4
6
2
3
8
7
5

>  <PUBCHEM_MMFF94_PARTIAL_CHARGES>
33
1 -0.16
10 0.08
11 0.05
12 0.09
13 0.47
14 0.08
15 0.03
16 -0.15
17 0.08
18 0.08
19 -0.15
2 -0.36
20 -0.15
21 0.08
22 -0.15
23 0.08
24 0.28
25 0.28
26 0.28
27 0.15
28 0.15
29 0.15
3 -0.36
30 0.15
31 0.45
4 -0.36
41 0.45
42 0.45
5 -0.53
6 -0.57
7 -0.53
8 -0.53
9 0.09

>  <PUBCHEM_EFFECTIVE_ROTOR_COUNT>
4

>  <PUBCHEM_PHARMACOPHORE_FEATURES>
11
1 1 acceptor
1 2 acceptor
1 3 acceptor
1 4 acceptor
1 5 donor
1 6 acceptor
1 7 donor
1 8 donor
6 1 9 10 11 12 13 rings
6 15 19 20 21 22 23 rings
6 9 10 14 16 17 18 rings

>  <PUBCHEM_HEAVY_ATOM_COUNT>
26

>  <PUBCHEM_ATOM_DEF_STEREO_COUNT>
0

>  <PUBCHEM_ATOM_UDEF_STEREO_COUNT>
0

>  <PUBCHEM_BOND_DEF_STEREO_COUNT>
0

>  <PUBCHEM_BOND_UDEF_STEREO_COUNT>
0

>  <PUBCHEM_ISOTOPIC_ATOM_COUNT>
0

>  <PUBCHEM_COMPONENT_COUNT>
1

>  <PUBCHEM_CACTVS_TAUTO_COUNT>
57

>  <PUBCHEM_CONFORMER_ID>
005093BB00000001

>  <PUBCHEM_MMFF94_ENERGY>
108.7637

>  <PUBCHEM_FEATURE_SELFOVERLAP>
55.864

>  <PUBCHEM_SHAPE_FINGERPRINT>
10366900 7 18343012320462085929
10411042 1 17616534403133904675
10498660 4 18411982429709260256
10591671 39 18260552259661722223
10670039 82 18334300834006442932
10906281 52 18113629979703334817
11963148 33 18263074590892513227
12236239 1 17531240717012011968
12390115 104 18270973349455607633
12403259 415 18130504232089377448
12596602 18 16588025752939025112
12788726 201 17317620025714339730
13140716 1 17903922497791351155
13540713 5 18124299529524049891
14341114 328 17458058279175697792
14790565 3 18336272309504664972
14840074 17 17241057568906195516
15131766 46 16010168698789414646
15196674 1 18338514123956346947
1601671 61 18334014978099773372
173720 79 18113886178760488098
17980427 23 17822296820218594324
18608769 82 18339084895267169907
200 152 14836413536000335104
20645477 70 16773807982901947780
20691752 17 17459195079509233091
21033648 29 17703779340979935880
21279426 13 18271530780301687150
22122407 14 16081090376619396309
22182313 1 18265921144606992531
22393880 68 18059577962148520134
23366157 5 17897162425457863594
23402539 116 18337382859102816246
23559900 14 18269556199004903256
23569914 152 16694712178342731517
23569917 315 18260264144339577258
25147074 1 18337379431993305051
34797466 226 17774726458280642764
350125 39 18408886261338049105
469060 322 18263666089729596689
474 4 17676489445171954266
5104073 3 18263647260608658803
5265222 85 18196660803804315670
59755656 215 18412260648984488743
633830 44 18196931063935815711
7808743 9 18408041818721535376
8863177 126 12174753239869686669
9981440 41 18260832608967073083

>  <PUBCHEM_SHAPE_MULTIPOLES>
488.11
12.96
2.94
1.14
2.99
1.07
0.26
-7.76
2.4
-2.06
-0.41
1.17
-0.21
-0.1

>  <PUBCHEM_SHAPE_SELFOVERLAP>
1074.842

>  <PUBCHEM_SHAPE_VOLUME>
263

>  <PUBCHEM_COORDINATE_TYPE>
2
5
10

$$$$
5280863
 OpenBabel09242400493D

 31 33  0  0  0  0  0  0  0  0999 V2000
   -0.1128   -0.8909   -0.0017 O   0  0  0  0  0  0  0  0  0  0  0  0
    0.9956    2.6247   -0.0191 O   0  0  0  0  0  0  0  0  0  0  0  0
   -4.1670    1.7646    0.0025 O   0  0  0  0  0  0  0  0  0  0  0  0
   -1.7783    2.8281   -0.0053 O   0  0  0  0  0  0  0  0  0  0  0  0
   -4.3756   -2.9789   -0.0005 O   0  0  0  0  0  0  0  0  0  0  0  0
    6.1825   -0.8694   -0.0053 O   0  0  0  0  0  0  0  0  0  0  0  0
   -2.1071    0.4928    0.0012 C   0  0  0  0  0  0  0  0  0  0  0  0
   -1.4764   -0.7494    0.0002 C   0  0  0  0  0  0  0  0  0  0  0  0
    0.6707    0.2523    0.0098 C   0  0  0  0  0  0  0  0  0  0  0  0
   -1.2811    1.7099   -0.0003 C   0  0  0  0  0  0  0  0  0  0  0  0
    0.1879    1.5082    0.0025 C   0  0  0  0  0  0  0  0  0  0  0  0
    2.1150   -0.0408    0.0059 C   0  0  0  0  0  0  0  0  0  0  0  0
   -3.5018    0.5761    0.0019 C   0  0  0  0  0  0  0  0  0  0  0  0
   -2.2377   -1.9185   -0.0008 C   0  0  0  0  0  0  0  0  0  0  0  0
   -3.6304   -1.8396    0.0001 C   0  0  0  0  0  0  0  0  0  0  0  0
   -4.2610   -0.5947    0.0015 C   0  0  0  0  0  0  0  0  0  0  0  0
    2.8040   -0.1705    1.2120 C   0  0  0  0  0  0  0  0  0  0  0  0
    2.7935   -0.1896   -1.2039 C   0  0  0  0  0  0  0  0  0  0  0  0
    4.1709   -0.4487    1.2083 C   0  0  0  0  0  0  0  0  0  0  0  0
    4.1603   -0.4681   -1.2076 C   0  0  0  0  0  0  0  0  0  0  0  0
    4.8490   -0.5974   -0.0014 C   0  0  0  0  0  0  0  0  0  0  0  0
   -1.7487   -2.8895   -0.0022 H   0  0  0  0  0  0  0  0  0  0  0  0
   -5.3467   -0.5315    0.0020 H   0  0  0  0  0  0  0  0  0  0  0  0
    2.2887   -0.0578    2.1628 H   0  0  0  0  0  0  0  0  0  0  0  0
    2.2701   -0.0920   -2.1520 H   0  0  0  0  0  0  0  0  0  0  0  0
    4.6958   -0.5474    2.1548 H   0  0  0  0  0  0  0  0  0  0  0  0
    4.6831   -0.5832   -2.1531 H   0  0  0  0  0  0  0  0  0  0  0  0
    1.9285    2.3567   -0.0186 H   0  0  0  0  0  0  0  0  0  0  0  0
   -3.5413    2.5050    0.0071 H   0  0  0  0  0  0  0  0  0  0  0  0
   -5.3183   -2.7393    0.0003 H   0  0  0  0  0  0  0  0  0  0  0  0
    6.4954   -0.9249    0.9140 H   0  0  0  0  0  0  0  0  0  0  0  0
  1  8  1  0  0  0  0
  1  9  1  0  0  0  0
  2 11  1  0  0  0  0
  2 28  1  0  0  0  0
  3 13  1  0  0  0  0
  3 29  1  0  0  0  0
  4 10  2  0  0  0  0
  5 15  1  0  0  0  0
  5 30  1  0  0  0  0
  6 21  1  0  0  0  0
  6 31  1  0  0  0  0
  7  8  1  0  0  0  0
  7 10  1  0  0  0  0
  7 13  2  0  0  0  0
  8 14  2  0  0  0  0
  9 11  2  0  0  0  0
  9 12  1  0  0  0  0
 10 11  1  0  0  0  0
 12 17  2  0  0  0  0
 12 18  1  0  0  0  0
 13 16  1  0  0  0  0
 14 15  1  0  0  0  0
 14 22  1  0  0  0  0
 15 16  2  0  0  0  0
 16 23  1  0  0  0  0
 17 19  1  0  0  0  0
 17 24  1  0  0  0  0
 18 20  2  0  0  0  0
 18 25  1  0  0  0  0
 19 21  2  0  0  0  0
 19 26  1  0  0  0  0
 20 21  1  0  0  0  0
 20 27  1  0  0  0  0
M  END
>  <PUBCHEM_COMPOUND_CID>
5280863

>  <PUBCHEM_CONFORMER_RMSD>
0.6

>  <PUBCHEM_CONFORMER_DIVERSEORDER>
1

>  <PUBCHEM_MMFF94_PARTIAL_CHARGES>
31
1 -0.16
10 0.47
11 0.09
12 0.03
13 0.08
14 -0.15
15 0.08
16 -0.15
17 -0.15
18 -0.15
19 -0.15
2 -0.53
20 -0.15
21 0.08
22 0.15
23 0.15
24 0.15
25 0.15
26 0.15
27 0.15
28 0.45
29 0.45
3 -0.53
30 0.45
31 0.45
4 -0.57
5 -0.53
6 -0.53
7 0.09
8 0.08
9 0.05

>  <PUBCHEM_EFFECTIVE_ROTOR_COUNT>
1

>  <PUBCHEM_PHARMACOPHORE_FEATURES>
9
1 1 acceptor
1 2 donor
1 3 donor
1 4 acceptor
1 5 donor
1 6 donor
6 1 7 8 9 10 11 rings
6 12 17 18 19 20 21 rings
6 7 8 13 14 15 16 rings

>  <PUBCHEM_HEAVY_ATOM_COUNT>
21

>  <PUBCHEM_ATOM_DEF_STEREO_COUNT>
0

>  <PUBCHEM_ATOM_UDEF_STEREO_COUNT>
0

>  <PUBCHEM_BOND_DEF_STEREO_COUNT>
0

>  <PUBCHEM_BOND_UDEF_STEREO_COUNT>
0

>  <PUBCHEM_ISOTOPIC_ATOM_COUNT>
0

>  <PUBCHEM_COMPONENT_COUNT>
1

>  <PUBCHEM_CACTVS_TAUTO_COUNT>
126

>  <PUBCHEM_CONFORMER_ID>
0050945F00000001

>  <PUBCHEM_MMFF94_ENERGY>
63.6634

>  <PUBCHEM_FEATURE_SELFOVERLAP>
45.701

>  <PUBCHEM_SHAPE_FINGERPRINT>
10062212 137 18259704501815817475
10319926 262 18198039440708472114
10411042 1 18266459996136868551
10493431 412 18054800477274442545
10616163 171 18411139112664406262
11046707 91 18409730677123910171
11370993 144 16916517955761329203
11543360 7 15719391793172269227
12107183 9 17541371342140675274
12236239 1 17749392534061481470
12363563 72 18339086002704009255
12553582 1 18335417984827221099
13140716 1 18340488962783208193
13288520 33 18410856568303811111
13675066 3 17917989503163926634
13862211 1 18411135875018635839
14386348 63 17917994953962754494
14790565 3 17907586822313171969
15042514 8 18410016533441990531
15196674 1 18410575127634143204
15536298 74 18268991053969707425
16752209 62 18261663818488179675
16945 1 18410573947008695237
17492 89 17979916334999118719
17804303 29 18413387644160661329
18222031 100 18270674402272329287
19141452 34 17846780749752405951
200 152 16588024589466838308
20028762 73 17985829461378751375
21033648 29 17203314598809963442
21065201 7 18341611465349671010
21267235 1 18408891762974708547
221490 88 18191593162225813571
2297311 6 18341902883091139510
23366157 5 17970347246368186860
23402539 116 18409726249144594518
23557571 272 18201721691948635868
23559900 14 18271250400689538198
25147074 1 18264787600074730613
2748010 2 18267295620510030677
3004659 81 18113614624936730478
312423 11 18190190164135409397
335352 9 18410291424544975637
4214541 1 18410855451569901696
474 4 17024325213363864316
5104073 3 18342177807789199753
559249 180 18261388901826549970
573450 72 18260823774456318682
59755656 215 18267868281237107870
602551 16 18412822482673668010
67856867 119 18260834856110609924
7364860 26 18054791946941650728
7495541 125 18130786776881943360
77492 1 17676211226149614980
7970288 3 18338515373228633302
8863177 126 17536044590725800739
9709674 26 18120654892652843899

>  <PUBCHEM_SHAPE_MULTIPOLES>
396.95
10.55
2.4
0.89
7.48
0.59
0
-4.96
0.01
-3.3
-0.01
1.05
-0.1
0.01

>  <PUBCHEM_SHAPE_SELFOVERLAP>
889.871

>  <PUBCHEM_SHAPE_VOLUME>
208.9

>  <PUBCHEM_COORDINATE_TYPE>
2
5
10

$$$$
5281167
 OpenBabel09242400493D

 19 18  0  0  0  0  0  0  0  0999 V2000
    2.2217   -1.0520    0.3429 O   0  0  0  0  0  0  0  0  0  0  0  0
    0.8328    0.5874   -0.7451 C   0  0  0  0  0  0  0  0  0  0  0  0
   -1.6946   -0.7518    0.1974 C   0  0  0  0  0  0  0  0  0  0  0  0
    0.1136    0.9542    0.5225 C   0  0  0  0  0  0  0  0  0  0  0  0
   -1.0120    0.3574    0.9415 C   0  0  0  0  0  0  0  0  0  0  0  0
    2.2551    0.1144   -0.4694 C   0  0  0  0  0  0  0  0  0  0  0  0
   -2.7166   -0.2096   -0.7897 C   0  0  0  0  0  0  0  0  0  0  0  0
    0.8755    1.4805   -1.3803 H   0  0  0  0  0  0  0  0  0  0  0  0
    0.3127   -0.1758   -1.3284 H   0  0  0  0  0  0  0  0  0  0  0  0
   -0.9891   -1.4217   -0.3033 H   0  0  0  0  0  0  0  0  0  0  0  0
   -2.2116   -1.3810    0.9328 H   0  0  0  0  0  0  0  0  0  0  0  0
    0.5307    1.7609    1.1196 H   0  0  0  0  0  0  0  0  0  0  0  0
   -1.4757    0.7018    1.8621 H   0  0  0  0  0  0  0  0  0  0  0  0
    2.7610   -0.1296   -1.4091 H   0  0  0  0  0  0  0  0  0  0  0  0
    2.8348    0.8850    0.0501 H   0  0  0  0  0  0  0  0  0  0  0  0
   -3.2393   -1.0360   -1.2823 H   0  0  0  0  0  0  0  0  0  0  0  0
   -2.2401    0.3975   -1.5664 H   0  0  0  0  0  0  0  0  0  0  0  0
   -3.4665    0.4094   -0.2853 H   0  0  0  0  0  0  0  0  0  0  0  0
    3.1438   -1.3233    0.4900 H   0  0  0  0  0  0  0  0  0  0  0  0
  1  6  1  0  0  0  0
  1 19  1  0  0  0  0
  2  4  1  0  0  0  0
  2  6  1  0  0  0  0
  2  8  1  0  0  0  0
  2  9  1  0  0  0  0
  3  5  1  0  0  0  0
  3  7  1  0  0  0  0
  3 10  1  0  0  0  0
  3 11  1  0  0  0  0
  4  5  2  0  0  0  0
  4 12  1  0  0  0  0
  5 13  1  0  0  0  0
  6 14  1  0  0  0  0
  6 15  1  0  0  0  0
  7 16  1  0  0  0  0
  7 17  1  0  0  0  0
  7 18  1  0  0  0  0
M  END
>  <PUBCHEM_COMPOUND_CID>
5281167

>  <PUBCHEM_CONFORMER_RMSD>
0.4

>  <PUBCHEM_CONFORMER_DIVERSEORDER>
1
6
24
11
19
12
15
22
2
18
13
3
21
10
20
28
8
25
23
9
16
5
14
7
17
4
27
26

>  <PUBCHEM_MMFF94_PARTIAL_CHARGES>
9
1 -0.68
12 0.15
13 0.15
19 0.4
2 0.14
3 0.14
4 -0.29
5 -0.29
6 0.28

>  <PUBCHEM_EFFECTIVE_ROTOR_COUNT>
3

>  <PUBCHEM_PHARMACOPHORE_FEATURES>
3
1 1 acceptor
1 1 donor
1 7 hydrophobe

>  <PUBCHEM_HEAVY_ATOM_COUNT>
7

>  <PUBCHEM_ATOM_DEF_STEREO_COUNT>
0

>  <PUBCHEM_ATOM_UDEF_STEREO_COUNT>
0

>  <PUBCHEM_BOND_DEF_STEREO_COUNT>
1

>  <PUBCHEM_BOND_UDEF_STEREO_COUNT>
0

>  <PUBCHEM_ISOTOPIC_ATOM_COUNT>
0

>  <PUBCHEM_COMPONENT_COUNT>
1

>  <PUBCHEM_CACTVS_TAUTO_COUNT>
1

>  <PUBCHEM_CONFORMER_ID>
0050958F00000001

>  <PUBCHEM_MMFF94_ENERGY>
1.2945

>  <PUBCHEM_FEATURE_SELFOVERLAP>
15.223

>  <PUBCHEM_SHAPE_FINGERPRINT>
10857977 72 15626218022329832435
11062470 55 17988922279832524765
14390081 3 14418128552043385573
15310529 11 17968664933473858535
20096714 4 13407064955299502637
20211469 26 15051730863470717645
20651381 22 16056590006303987792
20653085 51 16515689914040388957
21040471 1 13407067145632648849
23552449 11 17274249673201460697
29004967 10 17822584892338884992
5084963 1 10665500902509224241

>  <PUBCHEM_SHAPE_MULTIPOLES>
138.19
3.67
1.03
0.99
0.21
0.19
0.01
-1.3
0.14
0.12
-0.08
-0.11
-0.09
-0.28

>  <PUBCHEM_SHAPE_SELFOVERLAP>
243.754

>  <PUBCHEM_SHAPE_VOLUME>
90.5

>  <PUBCHEM_COORDINATE_TYPE>
2
5
10

$$$$
5281168
 OpenBabel09242400493D

 17 16  0  0  0  0  0  0  0  0999 V2000
   -3.4902    0.3127   -0.2944 O   0  0  0  0  0  0  0  0  0  0  0  0
    2.2676    0.4753    0.2906 C   0  0  0  0  0  0  0  0  0  0  0  0
    1.2819   -0.6040   -0.1585 C   0  0  0  0  0  0  0  0  0  0  0  0
    3.6587    0.2263   -0.2712 C   0  0  0  0  0  0  0  0  0  0  0  0
   -0.0838   -0.3693    0.4205 C   0  0  0  0  0  0  0  0  0  0  0  0
   -1.1688   -0.1332   -0.3268 C   0  0  0  0  0  0  0  0  0  0  0  0
   -2.4654    0.0920    0.3398 C   0  0  0  0  0  0  0  0  0  0  0  0
    1.9192    1.4621   -0.0379 H   0  0  0  0  0  0  0  0  0  0  0  0
    2.3243    0.5025    1.3857 H   0  0  0  0  0  0  0  0  0  0  0  0
    1.6332   -1.5890    0.1716 H   0  0  0  0  0  0  0  0  0  0  0  0
    1.2405   -0.6325   -1.2544 H   0  0  0  0  0  0  0  0  0  0  0  0
    4.0512   -0.7382    0.0664 H   0  0  0  0  0  0  0  0  0  0  0  0
    3.6459    0.2285   -1.3658 H   0  0  0  0  0  0  0  0  0  0  0  0
    4.3476    1.0089    0.0620 H   0  0  0  0  0  0  0  0  0  0  0  0
   -0.1623   -0.4038    1.5046 H   0  0  0  0  0  0  0  0  0  0  0  0
   -1.1354   -0.0932   -1.4089 H   0  0  0  0  0  0  0  0  0  0  0  0
   -2.4629    0.0496    1.4418 H   0  0  0  0  0  0  0  0  0  0  0  0
  1  7  2  0  0  0  0
  2  3  1  0  0  0  0
  2  4  1  0  0  0  0
  2  8  1  0  0  0  0
  2  9  1  0  0  0  0
  3  5  1  0  0  0  0
  3 10  1  0  0  0  0
  3 11  1  0  0  0  0
  4 12  1  0  0  0  0
  4 13  1  0  0  0  0
  4 14  1  0  0  0  0
  5  6  2  0  0  0  0
  5 15  1  0  0  0  0
  6  7  1  0  0  0  0
  6 16  1  0  0  0  0
  7 17  1  0  0  0  0
M  END
>  <PUBCHEM_COMPOUND_CID>
5281168

>  <PUBCHEM_CONFORMER_RMSD>
0.4

>  <PUBCHEM_CONFORMER_DIVERSEORDER>
2
11
21
24
15
1
19
10
5
14
23
7
20
8
22
17
18
9
12
13
16
6
4
3

>  <PUBCHEM_MMFF94_PARTIAL_CHARGES>
8
1 -0.57
15 0.15
16 0.15
17 0.06
3 0.14
5 -0.29
6 -0.14
7 0.5

>  <PUBCHEM_EFFECTIVE_ROTOR_COUNT>
3

>  <PUBCHEM_PHARMACOPHORE_FEATURES>
2
1 1 acceptor
1 4 hydrophobe

>  <PUBCHEM_HEAVY_ATOM_COUNT>
7

>  <PUBCHEM_ATOM_DEF_STEREO_COUNT>
0

>  <PUBCHEM_ATOM_UDEF_STEREO_COUNT>
0

>  <PUBCHEM_BOND_DEF_STEREO_COUNT>
1

>  <PUBCHEM_BOND_UDEF_STEREO_COUNT>
0

>  <PUBCHEM_ISOTOPIC_ATOM_COUNT>
0

>  <PUBCHEM_COMPONENT_COUNT>
1

>  <PUBCHEM_CACTVS_TAUTO_COUNT>
1

>  <PUBCHEM_CONFORMER_ID>
0050959000000002

>  <PUBCHEM_MMFF94_ENERGY>
-0.4472

>  <PUBCHEM_FEATURE_SELFOVERLAP>
10.148

>  <PUBCHEM_SHAPE_FINGERPRINT>
11062470 55 13334734630743177335
14325111 11 18260267460095468290
14390081 3 18412542106823339729
21293036 1 16200430286223499128
5460574 1 9151174250826327419

>  <PUBCHEM_SHAPE_MULTIPOLES>
138.19
5.99
0.73
0.7
0.14
0.03
-0.02
-1.1
0.69
0.15
-0.01
-0.01
0
0.04

>  <PUBCHEM_SHAPE_SELFOVERLAP>
246.277

>  <PUBCHEM_SHAPE_VOLUME>
89.6

>  <PUBCHEM_COORDINATE_TYPE>
2
5
10

$$$$
5281553
 OpenBabel09242400493D

 26 25  0  0  0  0  0  0  0  0999 V2000
   -0.5706   -0.7956   -1.0974 C   0  0  0  0  0  0  0  0  0  0  0  0
   -2.5810    0.1126    0.2118 C   0  0  0  0  0  0  0  0  0  0  0  0
   -1.8211   -0.8901   -0.2691 C   0  0  0  0  0  0  0  0  0  0  0  0
    0.6629   -0.9103   -0.2436 C   0  0  0  0  0  0  0  0  0  0  0  0
    1.7241   -0.0781   -0.1883 C   0  0  0  0  0  0  0  0  0  0  0  0
   -3.8251   -0.0528    1.0374 C   0  0  0  0  0  0  0  0  0  0  0  0
   -2.2126    1.5461   -0.0678 C   0  0  0  0  0  0  0  0  0  0  0  0
    1.8412    1.1901   -0.9921 C   0  0  0  0  0  0  0  0  0  0  0  0
    2.8283   -0.4115    0.7114 C   0  0  0  0  0  0  0  0  0  0  0  0
    3.9540    0.2897    0.8976 C   0  0  0  0  0  0  0  0  0  0  0  0
   -0.5849    0.0870   -1.7378 H   0  0  0  0  0  0  0  0  0  0  0  0
   -0.5731   -1.6429   -1.7958 H   0  0  0  0  0  0  0  0  0  0  0  0
   -2.1294   -1.9074   -0.0284 H   0  0  0  0  0  0  0  0  0  0  0  0
    0.6841   -1.8105    0.3730 H   0  0  0  0  0  0  0  0  0  0  0  0
   -4.6813    0.4081    0.5344 H   0  0  0  0  0  0  0  0  0  0  0  0
   -3.6993    0.4169    2.0181 H   0  0  0  0  0  0  0  0  0  0  0  0
   -4.0616   -1.1094    1.2002 H   0  0  0  0  0  0  0  0  0  0  0  0
   -2.9405    1.9915   -0.7540 H   0  0  0  0  0  0  0  0  0  0  0  0
   -1.2180    1.6855   -0.4940 H   0  0  0  0  0  0  0  0  0  0  0  0
   -2.2288    2.1219    0.8646 H   0  0  0  0  0  0  0  0  0  0  0  0
    0.9980    1.3699   -1.6609 H   0  0  0  0  0  0  0  0  0  0  0  0
    2.7358    1.1621   -1.6245 H   0  0  0  0  0  0  0  0  0  0  0  0
    1.9084    2.0593   -0.3284 H   0  0  0  0  0  0  0  0  0  0  0  0
    2.7233   -1.3281    1.2900 H   0  0  0  0  0  0  0  0  0  0  0  0
    4.7031   -0.0661    1.5981 H   0  0  0  0  0  0  0  0  0  0  0  0
    4.1662    1.2161    0.3768 H   0  0  0  0  0  0  0  0  0  0  0  0
  1  3  1  0  0  0  0
  1  4  1  0  0  0  0
  1 11  1  0  0  0  0
  1 12  1  0  0  0  0
  2  3  2  0  0  0  0
  2  6  1  0  0  0  0
  2  7  1  0  0  0  0
  3 13  1  0  0  0  0
  4  5  2  0  0  0  0
  4 14  1  0  0  0  0
  5  8  1  0  0  0  0
  5  9  1  0  0  0  0
  6 15  1  0  0  0  0
  6 16  1  0  0  0  0
  6 17  1  0  0  0  0
  7 18  1  0  0  0  0
  7 19  1  0  0  0  0
  7 20  1  0  0  0  0
  8 21  1  0  0  0  0
  8 22  1  0  0  0  0
  8 23  1  0  0  0  0
  9 10  2  0  0  0  0
  9 24  1  0  0  0  0
 10 25  1  0  0  0  0
 10 26  1  0  0  0  0
M  END
>  <PUBCHEM_COMPOUND_CID>
5281553

>  <PUBCHEM_CONFORMER_RMSD>
0.6

>  <PUBCHEM_CONFORMER_DIVERSEORDER>
1
24
20
21
23
7
14
16
26
25
8
18
10
9
17
5
6
22
19
4
12
11
13
15
2
3

>  <PUBCHEM_MMFF94_PARTIAL_CHARGES>
15
1 0.28
10 -0.3
13 0.15
14 0.15
2 -0.28
24 0.15
25 0.15
26 0.15
3 -0.29
4 -0.29
5 -0.14
6 0.14
7 0.14
8 0.14
9 -0.15

>  <PUBCHEM_EFFECTIVE_ROTOR_COUNT>
3

>  <PUBCHEM_PHARMACOPHORE_FEATURES>
3
1 10 hydrophobe
1 8 hydrophobe
3 2 6 7 hydrophobe

>  <PUBCHEM_HEAVY_ATOM_COUNT>
10

>  <PUBCHEM_ATOM_DEF_STEREO_COUNT>
0

>  <PUBCHEM_ATOM_UDEF_STEREO_COUNT>
0

>  <PUBCHEM_BOND_DEF_STEREO_COUNT>
1

>  <PUBCHEM_BOND_UDEF_STEREO_COUNT>
0

>  <PUBCHEM_ISOTOPIC_ATOM_COUNT>
0

>  <PUBCHEM_COMPONENT_COUNT>
1

>  <PUBCHEM_CACTVS_TAUTO_COUNT>
1

>  <PUBCHEM_CONFORMER_ID>
0050971100000001

>  <PUBCHEM_MMFF94_ENERGY>
12.9016

>  <PUBCHEM_FEATURE_SELFOVERLAP>
15.224

>  <PUBCHEM_SHAPE_FINGERPRINT>
11127187 94 8790593815329478633
11132069 177 18202008737518801071
12251169 10 18113619001423969954
12897270 3 10879986964976845623
12932764 1 18060417997574576502
14390081 3 17275107210735396755
15775835 57 17917991676470165011
17834069 15 18340196393736841730
17846911 113 18060138726216671649
18342897 55 13254504397204725962
18619055 16 11239728439364604885
20211469 26 16588023532899725763
20281407 28 15213012722412117202
20523700 14 10879990246484938057
20645464 45 17060338543456125175
20653085 51 14332869053419454019
20671657 53 10953458526815804342
20871999 31 11815602074492918625
21028194 46 18060144202062616567
22485316 2 14345790552359643506
230 275 18272095954541804679
23402539 116 17774140440358445167
23402655 69 12895079504619069314
23500284 214 17275109439797205867
23557571 272 16343140362847820671
305870 269 18269549459942778966
3248919 1 18410011073863694631
449060 23 12540690384316209314
528716 315 10303807722083639709

>  <PUBCHEM_SHAPE_MULTIPOLES>
205.8
6.64
1.25
1.1
0.59
0.34
-0.01
0.9
3.07
-0.32
-0.25
0.15
0.01
-0.24

>  <PUBCHEM_SHAPE_SELFOVERLAP>
382.143

>  <PUBCHEM_SHAPE_VOLUME>
129.1

>  <PUBCHEM_COORDINATE_TYPE>
2
5
10

$$$$
5281677
 OpenBabel09242400493D

 41 43  0  0  0  0  0  0  0  0999 V2000
   -0.5275   -0.8054    0.1809 O   0  0  0  0  0  0  0  0  0  0  0  0
    0.9036    2.5810    0.4484 O   0  0  0  0  0  0  0  0  0  0  0  0
   -4.9456   -2.4598   -0.3434 O   0  0  0  0  0  0  0  0  0  0  0  0
   -4.2917    2.2358   -0.0832 O   0  0  0  0  0  0  0  0  0  0  0  0
   -1.8253    3.0572    0.1981 O   0  0  0  0  0  0  0  0  0  0  0  0
    4.6230   -0.9164   -1.6972 O   0  0  0  0  0  0  0  0  0  0  0  0
    5.7092   -1.4046    0.8144 O   0  0  0  0  0  0  0  0  0  0  0  0
   -2.3719    0.7675    0.0557 C   0  0  0  0  0  0  0  0  0  0  0  0
    0.3550    0.2532    0.3268 C   0  0  0  0  0  0  0  0  0  0  0  0
   -1.8646   -0.5300    0.0550 C   0  0  0  0  0  0  0  0  0  0  0  0
   -0.0037    1.5500    0.3344 C   0  0  0  0  0  0  0  0  0  0  0  0
    1.7578   -0.1809    0.4510 C   0  0  0  0  0  0  0  0  0  0  0  0
   -1.4390    1.8960    0.1964 C   0  0  0  0  0  0  0  0  0  0  0  0
   -3.7451    0.9883   -0.0774 C   0  0  0  0  0  0  0  0  0  0  0  0
   -2.7286   -1.6170   -0.0795 C   0  0  0  0  0  0  0  0  0  0  0  0
   -4.1003   -1.4008   -0.2123 C   0  0  0  0  0  0  0  0  0  0  0  0
   -4.6073   -0.1007   -0.2111 C   0  0  0  0  0  0  0  0  0  0  0  0
    2.5410   -0.3469   -0.6916 C   0  0  0  0  0  0  0  0  0  0  0  0
    2.3035   -0.4264    1.7114 C   0  0  0  0  0  0  0  0  0  0  0  0
    3.8687   -0.7579   -0.5740 C   0  0  0  0  0  0  0  0  0  0  0  0
    3.6312   -0.8375    1.8290 C   0  0  0  0  0  0  0  0  0  0  0  0
    4.4138   -1.0032    0.6864 C   0  0  0  0  0  0  0  0  0  0  0  0
    1.3540    2.9983   -0.8262 C   0  0  0  0  0  0  0  0  0  0  0  0
   -4.3614   -3.7613   -0.3367 C   0  0  0  0  0  0  0  0  0  0  0  0
    5.3509    0.2215   -2.1551 C   0  0  0  0  0  0  0  0  0  0  0  0
   -2.2763   -2.6033   -0.0736 H   0  0  0  0  0  0  0  0  0  0  0  0
   -5.6774    0.0621   -0.3152 H   0  0  0  0  0  0  0  0  0  0  0  0
    2.1214   -0.1700   -1.6797 H   0  0  0  0  0  0  0  0  0  0  0  0
    1.7057   -0.3021    2.6111 H   0  0  0  0  0  0  0  0  0  0  0  0
    4.0499   -1.0270    2.8136 H   0  0  0  0  0  0  0  0  0  0  0  0
   -3.6026    2.9100    0.0191 H   0  0  0  0  0  0  0  0  0  0  0  0
    0.5265    3.3898   -1.4284 H   0  0  0  0  0  0  0  0  0  0  0  0
    1.8647    2.2046   -1.3755 H   0  0  0  0  0  0  0  0  0  0  0  0
    2.0707    3.8124   -0.6798 H   0  0  0  0  0  0  0  0  0  0  0  0
   -3.6877   -3.9047   -1.1883 H   0  0  0  0  0  0  0  0  0  0  0  0
   -5.1777   -4.4822   -0.4508 H   0  0  0  0  0  0  0  0  0  0  0  0
   -3.8746   -3.9793    0.6200 H   0  0  0  0  0  0  0  0  0  0  0  0
    6.0905   -1.5068   -0.0746 H   0  0  0  0  0  0  0  0  0  0  0  0
    6.0447    0.5747   -1.3857 H   0  0  0  0  0  0  0  0  0  0  0  0
    4.6636    1.0254   -2.4376 H   0  0  0  0  0  0  0  0  0  0  0  0
    5.9267   -0.0722   -3.0369 H   0  0  0  0  0  0  0  0  0  0  0  0
  1  9  1  0  0  0  0
  1 10  1  0  0  0  0
  2 11  1  0  0  0  0
  2 23  1  0  0  0  0
  3 16  1  0  0  0  0
  3 24  1  0  0  0  0
  4 14  1  0  0  0  0
  4 31  1  0  0  0  0
  5 13  2  0  0  0  0
  6 20  1  0  0  0  0
  6 25  1  0  0  0  0
  7 22  1  0  0  0  0
  7 38  1  0  0  0  0
  8 10  1  0  0  0  0
  8 13  1  0  0  0  0
  8 14  2  0  0  0  0
  9 11  2  0  0  0  0
  9 12  1  0  0  0  0
 10 15  2  0  0  0  0
 11 13  1  0  0  0  0
 12 18  2  0  0  0  0
 12 19  1  0  0  0  0
 14 17  1  0  0  0  0
 15 16  1  0  0  0  0
 15 26  1  0  0  0  0
 16 17  2  0  0  0  0
 17 27  1  0  0  0  0
 18 20  1  0  0  0  0
 18 28  1  0  0  0  0
 19 21  2  0  0  0  0
 19 29  1  0  0  0  0
 20 22  2  0  0  0  0
 21 22  1  0  0  0  0
 21 30  1  0  0  0  0
 23 32  1  0  0  0  0
 23 33  1  0  0  0  0
 23 34  1  0  0  0  0
 24 35  1  0  0  0  0
 24 36  1  0  0  0  0
 24 37  1  0  0  0  0
 25 39  1  0  0  0  0
 25 40  1  0  0  0  0
 25 41  1  0  0  0  0
M  END
>  <PUBCHEM_COMPOUND_CID>
5281677

>  <PUBCHEM_CONFORMER_RMSD>
0.8

>  <PUBCHEM_CONFORMER_DIVERSEORDER>
3
8
5
4
7
6
2
1

>  <PUBCHEM_MMFF94_PARTIAL_CHARGES>
32
1 -0.16
10 0.08
11 0.09
12 0.03
13 0.47
14 0.08
15 -0.15
16 0.08
17 -0.15
18 -0.15
19 -0.15
2 -0.36
20 0.08
21 -0.15
22 0.08
23 0.28
24 0.28
25 0.28
26 0.15
27 0.15
28 0.15
29 0.15
3 -0.36
30 0.15
31 0.45
38 0.45
4 -0.53
5 -0.57
6 -0.36
7 -0.53
8 0.09
9 0.05

>  <PUBCHEM_EFFECTIVE_ROTOR_COUNT>
4

>  <PUBCHEM_PHARMACOPHORE_FEATURES>
10
1 1 acceptor
1 2 acceptor
1 3 acceptor
1 4 donor
1 5 acceptor
1 6 acceptor
1 7 donor
6 1 8 9 10 11 13 rings
6 12 18 19 20 21 22 rings
6 8 10 14 15 16 17 rings

>  <PUBCHEM_HEAVY_ATOM_COUNT>
25

>  <PUBCHEM_ATOM_DEF_STEREO_COUNT>
0

>  <PUBCHEM_ATOM_UDEF_STEREO_COUNT>
0

>  <PUBCHEM_BOND_DEF_STEREO_COUNT>
0

>  <PUBCHEM_BOND_UDEF_STEREO_COUNT>
0

>  <PUBCHEM_ISOTOPIC_ATOM_COUNT>
0

>  <PUBCHEM_COMPONENT_COUNT>
1

>  <PUBCHEM_CACTVS_TAUTO_COUNT>
25

>  <PUBCHEM_CONFORMER_ID>
0050978D00000003

>  <PUBCHEM_MMFF94_ENERGY>
102.1676

>  <PUBCHEM_FEATURE_SELFOVERLAP>
50.781

>  <PUBCHEM_SHAPE_FINGERPRINT>
10369192 42 17415819535706150312
10411042 1 18267016336167328387
11796584 16 18198903605129623002
11963148 33 17545591713759888819
12236239 1 17822292323846614922
12553582 1 18409167705880327427
12616971 3 17458627757505697978
12788726 201 18263371304090475249
13009979 54 18059028292719086505
13140716 1 18341044199080893505
13540713 5 18339089310483143305
13690498 29 18334582382081766279
13782708 43 17632302212436798150
14251757 5 18335995245422203750
14386348 63 17703784782898340290
14790565 3 17764316041955930449
14910302 57 18126008157223552230
17138139 8 17896028996183311666
17492 89 18194394718207412275
17804303 29 18342731901820866449
1813 80 18341894112599076880
18222031 100 18272931665073301551
193927 3 18272090560564469295
200 152 17023184860511865680
20511986 3 17895185572417817788
20600515 1 18270386222762096536
20691752 17 17385996308260542625
20871999 31 18409175402176846198
21033648 29 17131536272225317691
21065201 7 18272082751992048610
21267235 1 18409449194116564267
23366157 5 18042121136235862772
23379529 103 18200041757960807807
23402539 116 18337664226979572890
23557571 272 18129656388486551472
23559900 14 18343863320465388908
25147074 1 18337684108700015609
312423 11 18265339580791986555
335352 9 18411132538155620621
3411729 13 18198049477878887144
474 4 16951146053067235044
5104073 3 18271806873695010609
6823239 73 18272929436459840568
7237137 82 18259702294276552325
7970288 3 18410849996957317410
86090 222 16773257148614153494
9709674 26 18119244206544703835

>  <PUBCHEM_SHAPE_MULTIPOLES>
473.4
11.69
3.2
1.3
3.48
0.6
-0.14
-7.52
-2.7
-4
-0.29
2.59
-0.24
-1.09

>  <PUBCHEM_SHAPE_SELFOVERLAP>
1040.747

>  <PUBCHEM_SHAPE_VOLUME>
255.4

>  <PUBCHEM_COORDINATE_TYPE>
2
5
10

$$$$
5317287
 OpenBabel09242400493D

 42 44  0  0  0  0  0  0  0  0999 V2000
    0.0204   -0.6856    0.1865 O   0  0  0  0  0  0  0  0  0  0  0  0
   -5.4532   -0.0103   -0.1065 O   0  0  0  0  0  0  0  0  0  0  0  0
   -4.3515   -2.5160    0.2808 O   0  0  0  0  0  0  0  0  0  0  0  0
   -3.8456    2.1789   -0.3511 O   0  0  0  0  0  0  0  0  0  0  0  0
    1.3468    2.7250   -0.2568 O   0  0  0  0  0  0  0  0  0  0  0  0
   -1.4075    3.0862   -0.3955 O   0  0  0  0  0  0  0  0  0  0  0  0
    6.3019   -1.0200    0.4776 O   0  0  0  0  0  0  0  0  0  0  0  0
    5.0388   -1.0188   -1.9983 O   0  0  0  0  0  0  0  0  0  0  0  0
   -1.8820    0.7967   -0.0877 C   0  0  0  0  0  0  0  0  0  0  0  0
   -1.3308   -0.4677    0.1078 C   0  0  0  0  0  0  0  0  0  0  0  0
    0.8731    0.4017    0.0784 C   0  0  0  0  0  0  0  0  0  0  0  0
   -3.2678    0.9587   -0.1611 C   0  0  0  0  0  0  0  0  0  0  0  0
   -0.9819    1.9529   -0.2168 C   0  0  0  0  0  0  0  0  0  0  0  0
    0.4705    1.6701   -0.1205 C   0  0  0  0  0  0  0  0  0  0  0  0
    2.2953    0.0290    0.1792 C   0  0  0  0  0  0  0  0  0  0  0  0
   -2.1633   -1.5804    0.2308 C   0  0  0  0  0  0  0  0  0  0  0  0
   -4.0983   -0.1557   -0.0371 C   0  0  0  0  0  0  0  0  0  0  0  0
   -3.5474   -1.4229    0.1583 C   0  0  0  0  0  0  0  0  0  0  0  0
    3.0077   -0.3235   -0.9674 C   0  0  0  0  0  0  0  0  0  0  0  0
    2.9298    0.0277    1.4217 C   0  0  0  0  0  0  0  0  0  0  0  0
    4.3537   -0.6771   -0.8715 C   0  0  0  0  0  0  0  0  0  0  0  0
    4.2756   -0.3259    1.5176 C   0  0  0  0  0  0  0  0  0  0  0  0
    4.9876   -0.6781    0.3711 C   0  0  0  0  0  0  0  0  0  0  0  0
   -6.1404    0.2326    1.1183 C   0  0  0  0  0  0  0  0  0  0  0  0
   -4.6884   -3.2100   -0.9186 C   0  0  0  0  0  0  0  0  0  0  0  0
    7.2570    0.0327    0.3609 C   0  0  0  0  0  0  0  0  0  0  0  0
   -1.7353   -2.5681    0.3838 H   0  0  0  0  0  0  0  0  0  0  0  0
    2.5209   -0.3256   -1.9403 H   0  0  0  0  0  0  0  0  0  0  0  0
    2.3878    0.2993    2.3243 H   0  0  0  0  0  0  0  0  0  0  0  0
    4.7629   -0.3251    2.4889 H   0  0  0  0  0  0  0  0  0  0  0  0
   -3.1718    2.8727   -0.4119 H   0  0  0  0  0  0  0  0  0  0  0  0
    2.2605    2.4070   -0.1778 H   0  0  0  0  0  0  0  0  0  0  0  0
   -7.2071    0.3302    0.8988 H   0  0  0  0  0  0  0  0  0  0  0  0
   -5.7922    1.1624    1.5791 H   0  0  0  0  0  0  0  0  0  0  0  0
   -6.0016   -0.6039    1.8105 H   0  0  0  0  0  0  0  0  0  0  0  0
   -5.2267   -2.5512   -1.6073 H   0  0  0  0  0  0  0  0  0  0  0  0
   -5.3389   -4.0493   -0.6576 H   0  0  0  0  0  0  0  0  0  0  0  0
   -3.7873   -3.6022   -1.4006 H   0  0  0  0  0  0  0  0  0  0  0  0
    5.9432   -1.2723   -1.7454 H   0  0  0  0  0  0  0  0  0  0  0  0
    7.1335    0.7518    1.1768 H   0  0  0  0  0  0  0  0  0  0  0  0
    7.1605    0.5405   -0.6040 H   0  0  0  0  0  0  0  0  0  0  0  0
    8.2575   -0.4035    0.4278 H   0  0  0  0  0  0  0  0  0  0  0  0
  1 10  1  0  0  0  0
  1 11  1  0  0  0  0
  2 17  1  0  0  0  0
  2 24  1  0  0  0  0
  3 18  1  0  0  0  0
  3 25  1  0  0  0  0
  4 12  1  0  0  0  0
  4 31  1  0  0  0  0
  5 14  1  0  0  0  0
  5 32  1  0  0  0  0
  6 13  2  0  0  0  0
  7 23  1  0  0  0  0
  7 26  1  0  0  0  0
  8 21  1  0  0  0  0
  8 39  1  0  0  0  0
  9 10  1  0  0  0  0
  9 12  2  0  0  0  0
  9 13  1  0  0  0  0
 10 16  2  0  0  0  0
 11 14  2  0  0  0  0
 11 15  1  0  0  0  0
 12 17  1  0  0  0  0
 13 14  1  0  0  0  0
 15 19  2  0  0  0  0
 15 20  1  0  0  0  0
 16 18  1  0  0  0  0
 16 27  1  0  0  0  0
 17 18  2  0  0  0  0
 19 21  1  0  0  0  0
 19 28  1  0  0  0  0
 20 22  2  0  0  0  0
 20 29  1  0  0  0  0
 21 23  2  0  0  0  0
 22 23  1  0  0  0  0
 22 30  1  0  0  0  0
 24 33  1  0  0  0  0
 24 34  1  0  0  0  0
 24 35  1  0  0  0  0
 25 36  1  0  0  0  0
 25 37  1  0  0  0  0
 25 38  1  0  0  0  0
 26 40  1  0  0  0  0
 26 41  1  0  0  0  0
 26 42  1  0  0  0  0
M  END
>  <PUBCHEM_COMPOUND_CID>
5317287

>  <PUBCHEM_CONFORMER_RMSD>
0.8

>  <PUBCHEM_CONFORMER_DIVERSEORDER>
1
5
3
6
2
4

>  <PUBCHEM_MMFF94_PARTIAL_CHARGES>
33
1 -0.16
10 0.08
11 0.05
12 0.08
13 0.47
14 0.09
15 0.03
16 -0.15
17 0.08
18 0.08
19 -0.15
2 -0.36
20 -0.15
21 0.08
22 -0.15
23 0.08
24 0.28
25 0.28
26 0.28
27 0.15
28 0.15
29 0.15
3 -0.36
30 0.15
31 0.45
32 0.45
39 0.45
4 -0.53
5 -0.53
6 -0.57
7 -0.36
8 -0.53
9 0.09

>  <PUBCHEM_EFFECTIVE_ROTOR_COUNT>
4

>  <PUBCHEM_PHARMACOPHORE_FEATURES>
11
1 1 acceptor
1 2 acceptor
1 3 acceptor
1 4 donor
1 5 donor
1 6 acceptor
1 7 acceptor
1 8 donor
6 1 9 10 11 13 14 rings
6 15 19 20 21 22 23 rings
6 9 10 12 16 17 18 rings

>  <PUBCHEM_HEAVY_ATOM_COUNT>
26

>  <PUBCHEM_ATOM_DEF_STEREO_COUNT>
0

>  <PUBCHEM_ATOM_UDEF_STEREO_COUNT>
0

>  <PUBCHEM_BOND_DEF_STEREO_COUNT>
0

>  <PUBCHEM_BOND_UDEF_STEREO_COUNT>
0

>  <PUBCHEM_ISOTOPIC_ATOM_COUNT>
0

>  <PUBCHEM_COMPONENT_COUNT>
1

>  <PUBCHEM_CACTVS_TAUTO_COUNT>
65

>  <PUBCHEM_CONFORMER_ID>
005122A700000001

>  <PUBCHEM_MMFF94_ENERGY>
110.7877

>  <PUBCHEM_FEATURE_SELFOVERLAP>
55.856

>  <PUBCHEM_SHAPE_FINGERPRINT>
10411042 1 18265050426625221347
11524674 6 17132109139126616711
11578080 2 13541364674531288617
12166972 35 17313104151328341156
12236239 1 17458908137619143560
12516196 113 18343864428967579264
12553582 1 18333725819331124483
12616971 3 16878232978552395310
12633257 1 18411426128871102049
12788726 201 18115020793071812585
13140716 1 18338516451823600241
13288520 33 18408884036001170505
13402501 40 18202286879432611542
13533116 47 15482394149586624182
13540713 5 18123481733470332821
13583140 156 15267339643628057299
13782708 43 17988922241879907206
13862211 1 18408038511870705603
14386348 63 18060136510203327350
14790565 3 17547295497579974753
14910302 57 18267875986387169414
15196674 1 18337672039725446913
15537594 2 18187083940655499859
16087824 20 18263078818031414733
17492 89 17978227493913353579
17844677 252 18411421713291651424
18927931 339 18410293618756747231
19141452 34 18060136565811393423
200 152 16371005174867800060
20374829 77 18409730677029081583
21033648 29 17346020200093868258
21033650 10 17899720985184337460
21267235 1 18334017198607895353
21623969 137 17275386500090959238
2297311 6 18411704257704415632
23175994 123 17489587861655099537
23366157 5 17824543212600433845
23402539 116 18408879642154934654
23522609 53 18117871899695407557
23557571 272 18272375217758330188
23559900 14 18339917207624681473
23622692 118 18269547416076241119
25147074 1 18335994176207306213
3004659 81 18040432213497544868
314173 85 18342464733110978856
335352 9 18408317792583319525
34797466 226 18273222998076110188
351380 3 18040435494879095443
4325135 7 18334296483784605988
5104073 3 18268716181064171449
59755656 215 18340204094676890519
67856867 119 18114748235080399356
7237137 82 17967810518318226613
7495541 125 18272366486886240224
7970288 3 18337386153496589802
9709674 26 18118967133872457227

>  <PUBCHEM_SHAPE_MULTIPOLES>
488.11
15.09
2.54
1.09
10.6
0.34
-0.02
-6.53
1.4
-3.71
-0.67
1.09
-0.26
-0.01

>  <PUBCHEM_SHAPE_SELFOVERLAP>
1073.207

>  <PUBCHEM_SHAPE_VOLUME>
264

>  <PUBCHEM_COORDINATE_TYPE>
2
5
10

$$$$
5317319
 OpenBabel09242400493D

 39 38  0  0  0  0  0  0  0  0999 V2000
    1.3724   -1.2932   -0.5782 C   0  0  0  0  0  0  0  0  0  0  0  0
    0.3841   -2.3616   -0.1468 C   0  0  0  0  0  0  0  0  0  0  0  0
    2.3644   -0.8911    0.5220 C   0  0  0  0  0  0  0  0  0  0  0  0
   -1.3591   -0.6173    0.5504 C   0  0  0  0  0  0  0  0  0  0  0  0
   -0.8183   -2.0038    0.3450 C   0  0  0  0  0  0  0  0  0  0  0  0
   -2.1925   -0.1751   -0.6589 C   0  0  0  0  0  0  0  0  0  0  0  0
    3.3886    0.0989    0.0371 C   0  0  0  0  0  0  0  0  0  0  0  0
    0.8544   -3.7792   -0.3227 C   0  0  0  0  0  0  0  0  0  0  0  0
    3.3631    1.4411    0.1440 C   0  0  0  0  0  0  0  0  0  0  0  0
   -2.8328    1.1816   -0.4557 C   0  0  0  0  0  0  0  0  0  0  0  0
    4.4242    2.3750   -0.3647 C   0  0  0  0  0  0  0  0  0  0  0  0
    2.2135    2.1273    0.8327 C   0  0  0  0  0  0  0  0  0  0  0  0
   -4.1039    1.3018    0.2466 C   0  0  0  0  0  0  0  0  0  0  0  0
   -2.2131    2.2883   -0.9016 C   0  0  0  0  0  0  0  0  0  0  0  0
   -4.8450    0.3073    0.7506 C   0  0  0  0  0  0  0  0  0  0  0  0
    0.8520   -0.4011   -0.9473 H   0  0  0  0  0  0  0  0  0  0  0  0
    1.9259   -1.6648   -1.4518 H   0  0  0  0  0  0  0  0  0  0  0  0
    1.8338   -0.5252    1.4072 H   0  0  0  0  0  0  0  0  0  0  0  0
    2.9077   -1.7804    0.8678 H   0  0  0  0  0  0  0  0  0  0  0  0
   -0.5576    0.1018    0.7461 H   0  0  0  0  0  0  0  0  0  0  0  0
   -1.9741   -0.6265    1.4588 H   0  0  0  0  0  0  0  0  0  0  0  0
   -1.5036   -2.8023    0.6267 H   0  0  0  0  0  0  0  0  0  0  0  0
   -1.5429   -0.1398   -1.5450 H   0  0  0  0  0  0  0  0  0  0  0  0
   -2.9543   -0.9250   -0.9070 H   0  0  0  0  0  0  0  0  0  0  0  0
    4.2397   -0.3472   -0.4760 H   0  0  0  0  0  0  0  0  0  0  0  0
    0.0989   -4.4978    0.0115 H   0  0  0  0  0  0  0  0  0  0  0  0
    1.0659   -3.9833   -1.3771 H   0  0  0  0  0  0  0  0  0  0  0  0
    1.7642   -3.9572    0.2588 H   0  0  0  0  0  0  0  0  0  0  0  0
    5.2466    1.8290   -0.8386 H   0  0  0  0  0  0  0  0  0  0  0  0
    4.0057    3.0609   -1.1081 H   0  0  0  0  0  0  0  0  0  0  0  0
    4.8429    2.9622    0.4587 H   0  0  0  0  0  0  0  0  0  0  0  0
    1.3596    1.4833    1.0461 H   0  0  0  0  0  0  0  0  0  0  0  0
    1.8339    2.9383    0.2009 H   0  0  0  0  0  0  0  0  0  0  0  0
    2.5516    2.5642    1.7783 H   0  0  0  0  0  0  0  0  0  0  0  0
   -4.4922    2.3121    0.3685 H   0  0  0  0  0  0  0  0  0  0  0  0
   -1.2582    2.2292   -1.4147 H   0  0  0  0  0  0  0  0  0  0  0  0
   -2.6346    3.2796   -0.7661 H   0  0  0  0  0  0  0  0  0  0  0  0
   -5.7810    0.5319    1.2525 H   0  0  0  0  0  0  0  0  0  0  0  0
   -4.5572   -0.7353    0.6897 H   0  0  0  0  0  0  0  0  0  0  0  0
  1  2  1  0  0  0  0
  1  3  1  0  0  0  0
  1 16  1  0  0  0  0
  1 17  1  0  0  0  0
  2  5  2  0  0  0  0
  2  8  1  0  0  0  0
  3  7  1  0  0  0  0
  3 18  1  0  0  0  0
  3 19  1  0  0  0  0
  4  5  1  0  0  0  0
  4  6  1  0  0  0  0
  4 20  1  0  0  0  0
  4 21  1  0  0  0  0
  5 22  1  0  0  0  0
  6 10  1  0  0  0  0
  6 23  1  0  0  0  0
  6 24  1  0  0  0  0
  7  9  2  0  0  0  0
  7 25  1  0  0  0  0
  8 26  1  0  0  0  0
  8 27  1  0  0  0  0
  8 28  1  0  0  0  0
  9 11  1  0  0  0  0
  9 12  1  0  0  0  0
 10 13  1  0  0  0  0
 10 14  2  0  0  0  0
 11 29  1  0  0  0  0
 11 30  1  0  0  0  0
 11 31  1  0  0  0  0
 12 32  1  0  0  0  0
 12 33  1  0  0  0  0
 12 34  1  0  0  0  0
 13 15  2  0  0  0  0
 13 35  1  0  0  0  0
 14 36  1  0  0  0  0
 14 37  1  0  0  0  0
 15 38  1  0  0  0  0
 15 39  1  0  0  0  0
M  END
>  <PUBCHEM_COMPOUND_CID>
5317319

>  <PUBCHEM_CONFORMER_RMSD>
0.8

>  <PUBCHEM_CONFORMER_DIVERSEORDER>
1
144
461
277
290
405
276
243
55
271
380
486
233
404
432
25
333
299
111
132
90
423
260
328
399
410
365
367
376
89
315
306
480
368
289
369
36
199
401
352
316
103
442
335
297
187
88
445
173
77
51
361
366
182
221
230
91
101
374
298
293
440
189
305
357
11
330
217
487
268
47
250
160
470
170
227
116
326
481
179
340
229
349
288
177
474
165
285
240
71
341
57
208
421
70
78
300
31
93
323
226
148
153
171
435
370
294
112
462
282
310
75
159
142
304
213
67
397
63
245
73
424
351
43
14
422
215
420
224
313
359
141
136
176
12
452
258
161
476
137
320
38
494
488
168
192
273
264
347
364
378
140
86
35
389
270
181
382
275
472
210
197
72
125
252
261
262
133
338
301
418
128
413
104
436
138
394
278
427
196
417
106
218
483
429
441
203
393
58
204
371
477
44
190
241
497
466
425
373
186
194
119
279
451
24
143
64
60
184
105
372
356
92
484
379
283
437
118
109
265
139
2
363
180
443
212
381
156
115
110
409
482
256
98
355
193
391
19
76
145
467
375
8
454
178
254
244
296
322
52
172
59
85
146
490
201
332
18
175
147
158
123
53
398
350
56
412
489
129
49
396
166
324
433
284
280
235
46
496
407
232
269
308
6
339
344
164
402
211
174
220
223
102
348
83
100
225
65
444
30
336
498
307
131
117
491
246
206
23
456
479
253
248
150
219
255
214
185
41
286
415
362
68
414
475
149
312
163
54
450
377
45
455
478
438
167
151
395
120
319
426
383
469
485
188
209
234
343
162
39
200
231
416
61
493
408
33
236
458
62
15
157
386
327
238
471
114
20
154
22
468
222
403
473
406
247
113
302
79
331
16
28
32
121
463
97
465
96
130
205
191
95
155
342
295
346
207
428
400
292
274
29
66
281
21
434
251
303
4
152
42
314
448
40
228
411
317
84
7
318
80
392
27
124
183
10
492
337
453
82
419
17
449
457
431
94
195
446
430
239
169
99
460
309
107
242
134
48
249
13
26
37
495
385
259
384
358
390
3
291
198
9
267
287
216
360
263
387
81
266
122
202
388
135
50
237
334
321
74
354
345
5
127
108
87
34
257
69
272
464
329
447
353
311
325
459
439
126

>  <PUBCHEM_MMFF94_PARTIAL_CHARGES>
22
1 0.14
10 -0.14
11 0.14
12 0.14
13 -0.15
14 -0.3
15 -0.3
2 -0.28
22 0.15
25 0.15
3 0.14
35 0.15
36 0.15
37 0.15
38 0.15
39 0.15
4 0.14
5 -0.29
6 0.14
7 -0.29
8 0.14
9 -0.28

>  <PUBCHEM_EFFECTIVE_ROTOR_COUNT>
7

>  <PUBCHEM_PHARMACOPHORE_FEATURES>
6
1 14 hydrophobe
1 15 hydrophobe
1 8 hydrophobe
3 9 11 12 hydrophobe
4 1 2 3 7 hydrophobe
5 4 5 6 10 13 hydrophobe

>  <PUBCHEM_HEAVY_ATOM_COUNT>
15

>  <PUBCHEM_ATOM_DEF_STEREO_COUNT>
0

>  <PUBCHEM_ATOM_UDEF_STEREO_COUNT>
0

>  <PUBCHEM_BOND_DEF_STEREO_COUNT>
1

>  <PUBCHEM_BOND_UDEF_STEREO_COUNT>
0

>  <PUBCHEM_ISOTOPIC_ATOM_COUNT>
0

>  <PUBCHEM_COMPONENT_COUNT>
1

>  <PUBCHEM_CACTVS_TAUTO_COUNT>
1

>  <PUBCHEM_CONFORMER_ID>
005122C700000001

>  <PUBCHEM_MMFF94_ENERGY>
16.6651

>  <PUBCHEM_FEATURE_SELFOVERLAP>
30.478

>  <PUBCHEM_SHAPE_FINGERPRINT>
10681291 71 18411145765779555964
10871710 139 17469052510606071596
14026960 21 18335703819279925139
15342168 16 18413111632788487433
1741750 31 18340200912105760418
17834072 32 18338520875513580596
1798214 55 18412821417247588904
18219364 16 18340503217288748154
18785283 64 18335703785026279474
20621476 13 17974271149727382932
20671657 1 18267871583628978487
20671657 53 17552643543306267815
20681677 76 18047184155901364781
21524375 3 18410285921848395994
22182937 141 18269278035088801232
23532345 1 18338793399946692855
23559900 14 17975691697960993035
25 1 18341892965700377642
3524813 1 18335983069242348908
44154327 71 18334298694759333844
474 4 18341330011504697667
49207404 50 18262249849880537075
6333272 397 18410292488916350867
7364860 26 18195808461984023255
7808743 9 18120376716522766028
81228 2 17618202340786925979

>  <PUBCHEM_SHAPE_MULTIPOLES>
308.69
8.36
3.78
0.89
2.61
2.43
0
-7.35
0.82
-2.25
-0.48
0.23
-0.17
0.42

>  <PUBCHEM_SHAPE_SELFOVERLAP>
580.522

>  <PUBCHEM_SHAPE_VOLUME>
192.1

>  <PUBCHEM_COORDINATE_TYPE>
2
5
10

$$$$
5318214
 OpenBabel09242400493D

 34 36  0  0  0  0  0  0  0  0999 V2000
   -0.0245    0.5393   -0.1082 O   0  0  0  0  0  0  0  0  0  0  0  0
   -4.3278    2.5399   -0.2457 O   0  0  0  0  0  0  0  0  0  0  0  0
   -4.0254   -2.1739    0.2478 O   0  0  0  0  0  0  0  0  0  0  0  0
   -1.6077   -3.1914    0.3093 O   0  0  0  0  0  0  0  0  0  0  0  0
    4.5535    2.3878    0.8233 O   0  0  0  0  0  0  0  0  0  0  0  0
    6.3009    0.5076   -0.2430 O   0  0  0  0  0  0  0  0  0  0  0  0
   -1.9931   -0.8717    0.0756 C   0  0  0  0  0  0  0  0  0  0  0  0
   -1.3859    0.3748   -0.0666 C   0  0  0  0  0  0  0  0  0  0  0  0
    0.7803   -0.5843    0.0040 C   0  0  0  0  0  0  0  0  0  0  0  0
    2.2270   -0.2948   -0.0588 C   0  0  0  0  0  0  0  0  0  0  0  0
   -1.1427   -2.0668    0.1857 C   0  0  0  0  0  0  0  0  0  0  0  0
   -3.3851   -0.9796    0.1109 C   0  0  0  0  0  0  0  0  0  0  0  0
    0.3154   -1.8366    0.1380 C   0  0  0  0  0  0  0  0  0  0  0  0
   -2.1696    1.5238   -0.1749 C   0  0  0  0  0  0  0  0  0  0  0  0
   -3.5604    1.4203   -0.1399 C   0  0  0  0  0  0  0  0  0  0  0  0
   -4.1667    0.1714    0.0028 C   0  0  0  0  0  0  0  0  0  0  0  0
    2.7206    0.9229    0.4161 C   0  0  0  0  0  0  0  0  0  0  0  0
    3.1084   -1.2372   -0.5946 C   0  0  0  0  0  0  0  0  0  0  0  0
    4.0871    1.1963    0.3555 C   0  0  0  0  0  0  0  0  0  0  0  0
    4.4746   -0.9638   -0.6550 C   0  0  0  0  0  0  0  0  0  0  0  0
    4.9641    0.2529   -0.1799 C   0  0  0  0  0  0  0  0  0  0  0  0
   -5.7428    2.3633   -0.2025 C   0  0  0  0  0  0  0  0  0  0  0  0
    0.9466   -2.7119    0.2380 H   0  0  0  0  0  0  0  0  0  0  0  0
   -1.6999    2.4979   -0.2863 H   0  0  0  0  0  0  0  0  0  0  0  0
   -5.2424    0.0313    0.0360 H   0  0  0  0  0  0  0  0  0  0  0  0
    2.0551    1.6689    0.8450 H   0  0  0  0  0  0  0  0  0  0  0  0
    2.7645   -2.1871   -0.9952 H   0  0  0  0  0  0  0  0  0  0  0  0
    5.1466   -1.7054   -1.0788 H   0  0  0  0  0  0  0  0  0  0  0  0
   -3.3842   -2.8979    0.3158 H   0  0  0  0  0  0  0  0  0  0  0  0
   -6.0688    1.9576    0.7613 H   0  0  0  0  0  0  0  0  0  0  0  0
   -6.1002    1.7656   -1.0479 H   0  0  0  0  0  0  0  0  0  0  0  0
   -6.1951    3.3557   -0.2999 H   0  0  0  0  0  0  0  0  0  0  0  0
    5.5188    2.4067    0.7033 H   0  0  0  0  0  0  0  0  0  0  0  0
    6.7505   -0.2571   -0.6419 H   0  0  0  0  0  0  0  0  0  0  0  0
  1  8  1  0  0  0  0
  1  9  1  0  0  0  0
  2 15  1  0  0  0  0
  2 22  1  0  0  0  0
  3 12  1  0  0  0  0
  3 29  1  0  0  0  0
  4 11  2  0  0  0  0
  5 19  1  0  0  0  0
  5 33  1  0  0  0  0
  6 21  1  0  0  0  0
  6 34  1  0  0  0  0
  7  8  1  0  0  0  0
  7 11  1  0  0  0  0
  7 12  2  0  0  0  0
  8 14  2  0  0  0  0
  9 10  1  0  0  0  0
  9 13  2  0  0  0  0
 10 17  2  0  0  0  0
 10 18  1  0  0  0  0
 11 13  1  0  0  0  0
 12 16  1  0  0  0  0
 13 23  1  0  0  0  0
 14 15  1  0  0  0  0
 14 24  1  0  0  0  0
 15 16  2  0  0  0  0
 16 25  1  0  0  0  0
 17 19  1  0  0  0  0
 17 26  1  0  0  0  0
 18 20  2  0  0  0  0
 18 27  1  0  0  0  0
 19 21  2  0  0  0  0
 20 21  1  0  0  0  0
 20 28  1  0  0  0  0
 22 30  1  0  0  0  0
 22 31  1  0  0  0  0
 22 32  1  0  0  0  0
M  END
>  <PUBCHEM_COMPOUND_CID>
5318214

>  <PUBCHEM_CONFORMER_RMSD>
0.6

>  <PUBCHEM_CONFORMER_DIVERSEORDER>
1
8
6
3
5
7
4
2

>  <PUBCHEM_MMFF94_PARTIAL_CHARGES>
31
1 -0.16
10 0.03
11 0.47
12 0.08
13 -0.14
14 -0.15
15 0.08
16 -0.15
17 -0.15
18 -0.15
19 0.08
2 -0.36
20 -0.15
21 0.08
22 0.28
23 0.15
24 0.15
25 0.15
26 0.15
27 0.15
28 0.15
29 0.45
3 -0.53
33 0.45
34 0.45
4 -0.57
5 -0.53
6 -0.53
7 0.09
8 0.08
9 0.05

>  <PUBCHEM_EFFECTIVE_ROTOR_COUNT>
2

>  <PUBCHEM_PHARMACOPHORE_FEATURES>
9
1 1 acceptor
1 2 acceptor
1 3 donor
1 4 acceptor
1 5 donor
1 6 donor
6 1 7 8 9 11 13 rings
6 10 17 18 19 20 21 rings
6 7 8 12 14 15 16 rings

>  <PUBCHEM_HEAVY_ATOM_COUNT>
22

>  <PUBCHEM_ATOM_DEF_STEREO_COUNT>
0

>  <PUBCHEM_ATOM_UDEF_STEREO_COUNT>
0

>  <PUBCHEM_BOND_DEF_STEREO_COUNT>
0

>  <PUBCHEM_BOND_UDEF_STEREO_COUNT>
0

>  <PUBCHEM_ISOTOPIC_ATOM_COUNT>
0

>  <PUBCHEM_COMPONENT_COUNT>
1

>  <PUBCHEM_CACTVS_TAUTO_COUNT>
57

>  <PUBCHEM_CONFORMER_ID>
0051264600000001

>  <PUBCHEM_MMFF94_ENERGY>
75.3738

>  <PUBCHEM_FEATURE_SELFOVERLAP>
45.704

>  <PUBCHEM_SHAPE_FINGERPRINT>
10014705 185 18409730647164770573
10319926 262 18338502128445135786
10411042 1 17832710449934490779
10493431 412 18336551508833880749
10498660 4 18409445856299383489
10608611 8 18341331188700224552
10646746 165 18409449193757725022
11405975 8 18411135797228728682
11595378 159 16950834817766524292
12107183 9 18117547428243689002
12173636 292 18408882923741869271
12236239 1 17458343070209986902
12390115 104 18341626884255922473
12403259 415 18271806851840514840
12788726 201 16882752181712381666
12969540 114 18189319213550834421
13140716 1 18189613835496583147
13402501 40 18413387627033870816
13544592 145 18341061709562313054
14790565 3 18196376905733736425
15042514 8 18119535585832784123
15196674 1 18411136935110153702
17844677 252 18338524143872682736
200 152 17131837577319208442
20510252 161 18341897415534500931
20645477 56 18408324375781759885
20645477 70 17346330275970368718
21033648 29 18342730845116493616
21065198 57 18411138078199370802
21236236 1 18411982473233465327
21267235 1 18336556030606502307
21279426 13 18340773620130231622
21421861 104 17677881350300940642
23227448 37 18340767138676104036
23402539 116 18412539912010512766
23402655 69 18201999902502015556
23557571 272 18341339980350645054
23558518 356 17971193874663416672
23559900 14 18271525282865354678
283562 15 18409445925821006091
293599 30 18337392647602217965
3004659 81 18334863758860044582
335352 9 18338798893299905830
350125 39 18409736201048120769
3545911 37 18411984641480040196
4073 2 18187652431454174050
4214541 1 18411139147350665984
495365 180 17632282472502841362
5104073 3 18335420149263846634
5283173 99 18412543219225189696
59682541 35 18188787076552904121
59755656 520 18261669294487190087
633830 44 18342449292856381479
77779 3 18412265042983614382
9709674 26 18342182189094048270

>  <PUBCHEM_SHAPE_MULTIPOLES>
417.53
12.45
2.77
0.69
5.45
0.47
0.01
-7.36
0.75
-2.61
-0.28
0.27
-0.03
1.13

>  <PUBCHEM_SHAPE_SELFOVERLAP>
929.452

>  <PUBCHEM_SHAPE_VOLUME>
221.9

>  <PUBCHEM_COORDINATE_TYPE>
2
5
10

$$$$
5320351
 OpenBabel09242400493D

 48 50  0  0  0  0  0  0  0  0999 V2000
   -0.2134   -0.7773   -0.0987 O   0  0  0  0  0  0  0  0  0  0  0  0
    1.0295    2.6294   -0.7594 O   0  0  0  0  0  0  0  0  0  0  0  0
   -5.6917   -0.1395    0.1889 O   0  0  0  0  0  0  0  0  0  0  0  0
   -4.5342   -2.6295    0.5116 O   0  0  0  0  0  0  0  0  0  0  0  0
   -4.1371    2.0527   -0.2776 O   0  0  0  0  0  0  0  0  0  0  0  0
   -1.7264    2.9718   -0.6082 O   0  0  0  0  0  0  0  0  0  0  0  0
    4.8980   -0.3288    1.8945 O   0  0  0  0  0  0  0  0  0  0  0  0
    6.0625   -1.0764   -0.5152 O   0  0  0  0  0  0  0  0  0  0  0  0
   -2.1463    0.6877   -0.1973 C   0  0  0  0  0  0  0  0  0  0  0  0
   -1.5669   -0.5687   -0.0345 C   0  0  0  0  0  0  0  0  0  0  0  0
    0.6136    0.3119   -0.3232 C   0  0  0  0  0  0  0  0  0  0  0  0
    0.1818    1.5732   -0.5052 C   0  0  0  0  0  0  0  0  0  0  0  0
   -1.2748    1.8454   -0.4500 C   0  0  0  0  0  0  0  0  0  0  0  0
    2.0413   -0.0505   -0.3702 C   0  0  0  0  0  0  0  0  0  0  0  0
   -3.5330    0.8402   -0.1231 C   0  0  0  0  0  0  0  0  0  0  0  0
   -2.3722   -1.6829    0.2037 C   0  0  0  0  0  0  0  0  0  0  0  0
   -4.3363   -0.2756    0.1155 C   0  0  0  0  0  0  0  0  0  0  0  0
   -3.7573   -1.5347    0.2786 C   0  0  0  0  0  0  0  0  0  0  0  0
    2.8080   -0.0201    0.7950 C   0  0  0  0  0  0  0  0  0  0  0  0
    2.6269   -0.4246   -1.5800 C   0  0  0  0  0  0  0  0  0  0  0  0
    4.1592   -0.3636    0.7506 C   0  0  0  0  0  0  0  0  0  0  0  0
    4.7444   -0.7375   -0.4591 C   0  0  0  0  0  0  0  0  0  0  0  0
    3.9782   -0.7678   -1.6244 C   0  0  0  0  0  0  0  0  0  0  0  0
    1.4484    3.2401    0.4461 C   0  0  0  0  0  0  0  0  0  0  0  0
   -6.2458    0.1276    1.4748 C   0  0  0  0  0  0  0  0  0  0  0  0
   -4.9928   -3.3530   -0.6286 C   0  0  0  0  0  0  0  0  0  0  0  0
    5.5487    0.9009    2.2087 C   0  0  0  0  0  0  0  0  0  0  0  0
    6.3876   -2.4503   -0.3132 C   0  0  0  0  0  0  0  0  0  0  0  0
   -1.9222   -2.6643    0.3313 H   0  0  0  0  0  0  0  0  0  0  0  0
    2.3580    0.2593    1.7452 H   0  0  0  0  0  0  0  0  0  0  0  0
    2.0426   -0.4536   -2.4964 H   0  0  0  0  0  0  0  0  0  0  0  0
    4.4276   -1.0577   -2.5703 H   0  0  0  0  0  0  0  0  0  0  0  0
   -3.4791    2.7487   -0.4245 H   0  0  0  0  0  0  0  0  0  0  0  0
    2.0287    2.5669    1.0803 H   0  0  0  0  0  0  0  0  0  0  0  0
    0.5941    3.6334    1.0086 H   0  0  0  0  0  0  0  0  0  0  0  0
    2.0924    4.0866    0.1880 H   0  0  0  0  0  0  0  0  0  0  0  0
   -7.3305    0.2144    1.3688 H   0  0  0  0  0  0  0  0  0  0  0  0
   -5.8574    1.0695    1.8749 H   0  0  0  0  0  0  0  0  0  0  0  0
   -6.0271   -0.6921    2.1664 H   0  0  0  0  0  0  0  0  0  0  0  0
   -4.1457   -3.7510   -1.1963 H   0  0  0  0  0  0  0  0  0  0  0  0
   -5.6043   -4.1898   -0.2803 H   0  0  0  0  0  0  0  0  0  0  0  0
   -5.6077   -2.7134   -1.2697 H   0  0  0  0  0  0  0  0  0  0  0  0
    6.0969    0.7688    3.1455 H   0  0  0  0  0  0  0  0  0  0  0  0
    6.2599    1.1723    1.4222 H   0  0  0  0  0  0  0  0  0  0  0  0
    4.8132    1.7005    2.3428 H   0  0  0  0  0  0  0  0  0  0  0  0
    6.0633   -2.7815    0.6783 H   0  0  0  0  0  0  0  0  0  0  0  0
    5.9254   -3.0714   -1.0870 H   0  0  0  0  0  0  0  0  0  0  0  0
    7.4737   -2.5588   -0.3800 H   0  0  0  0  0  0  0  0  0  0  0  0
  1 10  1  0  0  0  0
  1 11  1  0  0  0  0
  2 12  1  0  0  0  0
  2 24  1  0  0  0  0
  3 17  1  0  0  0  0
  3 25  1  0  0  0  0
  4 18  1  0  0  0  0
  4 26  1  0  0  0  0
  5 15  1  0  0  0  0
  5 33  1  0  0  0  0
  6 13  2  0  0  0  0
  7 21  1  0  0  0  0
  7 27  1  0  0  0  0
  8 22  1  0  0  0  0
  8 28  1  0  0  0  0
  9 10  1  0  0  0  0
  9 13  1  0  0  0  0
  9 15  2  0  0  0  0
 10 16  2  0  0  0  0
 11 12  2  0  0  0  0
 11 14  1  0  0  0  0
 12 13  1  0  0  0  0
 14 19  2  0  0  0  0
 14 20  1  0  0  0  0
 15 17  1  0  0  0  0
 16 18  1  0  0  0  0
 16 29  1  0  0  0  0
 17 18  2  0  0  0  0
 19 21  1  0  0  0  0
 19 30  1  0  0  0  0
 20 23  2  0  0  0  0
 20 31  1  0  0  0  0
 21 22  2  0  0  0  0
 22 23  1  0  0  0  0
 23 32  1  0  0  0  0
 24 34  1  0  0  0  0
 24 35  1  0  0  0  0
 24 36  1  0  0  0  0
 25 37  1  0  0  0  0
 25 38  1  0  0  0  0
 25 39  1  0  0  0  0
 26 40  1  0  0  0  0
 26 41  1  0  0  0  0
 26 42  1  0  0  0  0
 27 43  1  0  0  0  0
 27 44  1  0  0  0  0
 27 45  1  0  0  0  0
 28 46  1  0  0  0  0
 28 47  1  0  0  0  0
 28 48  1  0  0  0  0
M  END
>  <PUBCHEM_COMPOUND_CID>
5320351

>  <PUBCHEM_CONFORMER_RMSD>
0.8

>  <PUBCHEM_CONFORMER_DIVERSEORDER>
1
7
11
3
6
8
2
10
4
9
5

>  <PUBCHEM_MMFF94_PARTIAL_CHARGES>
33
1 -0.16
10 0.08
11 0.05
12 0.09
13 0.47
14 0.03
15 0.08
16 -0.15
17 0.08
18 0.08
19 -0.15
2 -0.36
20 -0.15
21 0.08
22 0.08
23 -0.15
24 0.28
25 0.28
26 0.28
27 0.28
28 0.28
29 0.15
3 -0.36
30 0.15
31 0.15
32 0.15
33 0.45
4 -0.36
5 -0.53
6 -0.57
7 -0.36
8 -0.36
9 0.09

>  <PUBCHEM_EFFECTIVE_ROTOR_COUNT>
6

>  <PUBCHEM_PHARMACOPHORE_FEATURES>
11
1 1 acceptor
1 2 acceptor
1 3 acceptor
1 4 acceptor
1 5 donor
1 6 acceptor
1 7 acceptor
1 8 acceptor
6 1 9 10 11 12 13 rings
6 14 19 20 21 22 23 rings
6 9 10 15 16 17 18 rings

>  <PUBCHEM_HEAVY_ATOM_COUNT>
28

>  <PUBCHEM_ATOM_DEF_STEREO_COUNT>
0

>  <PUBCHEM_ATOM_UDEF_STEREO_COUNT>
0

>  <PUBCHEM_BOND_DEF_STEREO_COUNT>
0

>  <PUBCHEM_BOND_UDEF_STEREO_COUNT>
0

>  <PUBCHEM_ISOTOPIC_ATOM_COUNT>
0

>  <PUBCHEM_COMPONENT_COUNT>
1

>  <PUBCHEM_CACTVS_TAUTO_COUNT>
5

>  <PUBCHEM_CONFORMER_ID>
00512E9F00000001

>  <PUBCHEM_MMFF94_ENERGY>
134.7678

>  <PUBCHEM_FEATURE_SELFOVERLAP>
55.868

>  <PUBCHEM_SHAPE_FINGERPRINT>
10319926 262 18268133281119658690
11405975 8 18340777043635475627
11524674 6 17275101695876635591
12166972 35 17676778604151022220
12236239 1 17458351788940688164
12553582 1 18260827098808328915
12596602 18 17775284997181455762
12633257 1 18339374032364932689
12788726 201 18114181869973609641
13140716 1 18338239379256868105
13540713 5 18193014796960485117
13782708 43 17988642969952459190
13862211 1 18408326584006931791
13911987 19 13913190958782720910
14294032 229 17461441317668046277
15131766 46 15624789825856662832
15348495 7 18060697312209234690
17349148 13 17240483581218826738
17492 89 18122630719681132319
1813 80 17240754133798850508
18222031 100 18409166636475701014
18681886 176 18114188519468882198
19141452 34 18131354128728827063
200 152 16153426129960992300
20028762 73 18199748205821326207
21033648 29 17417517047422803106
21267235 1 18260558813934666675
21792934 111 18340487859662045281
21859007 373 18115288005021757045
22122407 14 15698285525073967947
2297311 6 18338524040946136844
23366157 5 17751928161898636716
23522609 53 17974044792572416381
23557571 272 18269840822445641860
23559900 14 18338513148909496149
23569914 152 12400736873854054539
3004659 81 17749394762912287486
312425 54 18130790053161775411
335352 9 18408326584402415061
3383291 50 18260832648445107947
3411729 13 18193838369808888832
3882209 13 17120545815845675407
5104073 3 18267031737998582721
57527293 21 18059275644397057046
59755656 215 18264772060709227542
7495541 125 18202002114990376078
7970288 3 18336828696669196590
9709674 26 18119254115118586475

>  <PUBCHEM_SHAPE_MULTIPOLES>
529.27
14.93
3.05
1.32
3.26
0.47
0.42
-9.04
4.22
-1.91
-0.48
1.75
0.11
1.04

>  <PUBCHEM_SHAPE_SELFOVERLAP>
1151.125

>  <PUBCHEM_SHAPE_VOLUME>
289.7

>  <PUBCHEM_COORDINATE_TYPE>
2
5
10

$$$$
5320377
 OpenBabel09242400493D

 26 25  0  0  0  0  0  0  0  0999 V2000
   -1.3635    0.3440    0.1465 C   0  0  0  0  0  0  0  0  0  0  0  0
   -1.4672    1.7898   -0.3850 C   0  0  0  0  0  0  0  0  0  0  0  0
   -1.8981    0.3466    1.5953 C   0  0  0  0  0  0  0  0  0  0  0  0
    0.0648   -0.1975    0.2013 C   0  0  0  0  0  0  0  0  0  0  0  0
   -2.1722   -0.5358   -0.8010 C   0  0  0  0  0  0  0  0  0  0  0  0
    1.1962    0.4468   -0.1342 C   0  0  0  0  0  0  0  0  0  0  0  0
    2.5489   -0.0961   -0.0708 C   0  0  0  0  0  0  0  0  0  0  0  0
   -3.2678   -1.2531   -0.5210 C   0  0  0  0  0  0  0  0  0  0  0  0
    2.7628   -1.5059    0.4073 C   0  0  0  0  0  0  0  0  0  0  0  0
    3.5960    0.6614   -0.4384 C   0  0  0  0  0  0  0  0  0  0  0  0
   -1.0770    1.8787   -1.4063 H   0  0  0  0  0  0  0  0  0  0  0  0
   -2.5106    2.1286   -0.4070 H   0  0  0  0  0  0  0  0  0  0  0  0
   -0.9133    2.4929    0.2484 H   0  0  0  0  0  0  0  0  0  0  0  0
   -1.2852    0.9878    2.2410 H   0  0  0  0  0  0  0  0  0  0  0  0
   -1.8905   -0.6581    2.0355 H   0  0  0  0  0  0  0  0  0  0  0  0
   -2.9258    0.7257    1.6451 H   0  0  0  0  0  0  0  0  0  0  0  0
    0.1359   -1.2233    0.5625 H   0  0  0  0  0  0  0  0  0  0  0  0
   -1.8135   -0.5762   -1.8298 H   0  0  0  0  0  0  0  0  0  0  0  0
    1.1294    1.4715   -0.4918 H   0  0  0  0  0  0  0  0  0  0  0  0
   -3.7480   -1.8367   -1.2996 H   0  0  0  0  0  0  0  0  0  0  0  0
   -3.7111   -1.2820    0.4668 H   0  0  0  0  0  0  0  0  0  0  0  0
    3.8228   -1.7840    0.4040 H   0  0  0  0  0  0  0  0  0  0  0  0
    2.2403   -2.2189   -0.2396 H   0  0  0  0  0  0  0  0  0  0  0  0
    2.4007   -1.6270    1.4339 H   0  0  0  0  0  0  0  0  0  0  0  0
    4.6108    0.2779   -0.3994 H   0  0  0  0  0  0  0  0  0  0  0  0
    3.4734    1.6820   -0.7877 H   0  0  0  0  0  0  0  0  0  0  0  0
  1  2  1  0  0  0  0
  1  3  1  0  0  0  0
  1  4  1  0  0  0  0
  1  5  1  0  0  0  0
  2 11  1  0  0  0  0
  2 12  1  0  0  0  0
  2 13  1  0  0  0  0
  3 14  1  0  0  0  0
  3 15  1  0  0  0  0
  3 16  1  0  0  0  0
  4  6  2  0  0  0  0
  4 17  1  0  0  0  0
  5  8  2  0  0  0  0
  5 18  1  0  0  0  0
  6  7  1  0  0  0  0
  6 19  1  0  0  0  0
  7  9  1  0  0  0  0
  7 10  2  0  0  0  0
  8 20  1  0  0  0  0
  8 21  1  0  0  0  0
  9 22  1  0  0  0  0
  9 23  1  0  0  0  0
  9 24  1  0  0  0  0
 10 25  1  0  0  0  0
 10 26  1  0  0  0  0
M  END
>  <PUBCHEM_COMPOUND_CID>
5320377

>  <PUBCHEM_CONFORMER_RMSD>
0.6

>  <PUBCHEM_CONFORMER_DIVERSEORDER>
1
6
5
4
3
2

>  <PUBCHEM_MMFF94_PARTIAL_CHARGES>
15
1 0.28
10 -0.3
17 0.15
18 0.15
19 0.15
20 0.15
21 0.15
25 0.15
26 0.15
4 -0.29
5 -0.29
6 -0.15
7 -0.14
8 -0.3
9 0.14

>  <PUBCHEM_EFFECTIVE_ROTOR_COUNT>
3

>  <PUBCHEM_PHARMACOPHORE_FEATURES>
2
1 8 hydrophobe
3 1 2 3 hydrophobe

>  <PUBCHEM_HEAVY_ATOM_COUNT>
10

>  <PUBCHEM_ATOM_DEF_STEREO_COUNT>
0

>  <PUBCHEM_ATOM_UDEF_STEREO_COUNT>
0

>  <PUBCHEM_BOND_DEF_STEREO_COUNT>
1

>  <PUBCHEM_BOND_UDEF_STEREO_COUNT>
0

>  <PUBCHEM_ISOTOPIC_ATOM_COUNT>
0

>  <PUBCHEM_COMPONENT_COUNT>
1

>  <PUBCHEM_CACTVS_TAUTO_COUNT>
1

>  <PUBCHEM_CONFORMER_ID>
00512EB900000001

>  <PUBCHEM_MMFF94_ENERGY>
18.8329

>  <PUBCHEM_FEATURE_SELFOVERLAP>
10.151

>  <PUBCHEM_SHAPE_FINGERPRINT>
10857977 72 16200429191112424707
12897270 3 18336539503577095990
12932764 1 18341057332837416864
13024252 1 17240206521510804673
14325111 11 18409446960311323676
15310529 11 18411414003577038910
15775835 57 18341619191610591152
18342897 69 17775280586276006679
20201158 50 17603865632699832714
20279233 1 16081087082605812946
20281407 28 18130781304524123167
20645477 70 18188201014119861478
20653085 51 17023173869590335197
21293036 1 17313660550791815439
21524375 3 17466785979028570365
23552423 10 18189612752837510234
3248919 1 17240770566559463204
369184 2 18411139099837091433
5084963 1 18343861125836892296
8030462 33 18040440962467265670

>  <PUBCHEM_SHAPE_MULTIPOLES>
205.8
5.77
1.44
1.02
2.82
0.06
0.33
-1.31
-0.74
-0.27
-0.14
-0.62
0.03
-0.6

>  <PUBCHEM_SHAPE_SELFOVERLAP>
386.672

>  <PUBCHEM_SHAPE_VOLUME>
130.7

>  <PUBCHEM_COORDINATE_TYPE>
2
5
10

$$$$
5464461
 OpenBabel09242400493D

 42 44  0  0  0  0  0  0  0  0999 V2000
   -0.1571   -0.9845   -0.2264 O   0  0  0  0  0  0  0  0  0  0  0  0
    1.0797    2.4712   -0.5665 O   0  0  0  0  0  0  0  0  0  0  0  0
   -5.6380   -0.3878    0.0973 O   0  0  0  0  0  0  0  0  0  0  0  0
   -4.0872    1.8414   -0.1597 O   0  0  0  0  0  0  0  0  0  0  0  0
   -1.6776    2.7922   -0.3951 O   0  0  0  0  0  0  0  0  0  0  0  0
   -4.4755   -2.8944    0.1942 O   0  0  0  0  0  0  0  0  0  0  0  0
    4.9454   -0.7097    1.8195 O   0  0  0  0  0  0  0  0  0  0  0  0
    6.1215   -1.2281   -0.6451 O   0  0  0  0  0  0  0  0  0  0  0  0
   -2.0933    0.4791   -0.1975 C   0  0  0  0  0  0  0  0  0  0  0  0
   -1.5114   -0.7856   -0.1486 C   0  0  0  0  0  0  0  0  0  0  0  0
    0.6680    0.1225   -0.3467 C   0  0  0  0  0  0  0  0  0  0  0  0
    0.2337    1.3943   -0.4137 C   0  0  0  0  0  0  0  0  0  0  0  0
   -1.2237    1.6570   -0.3394 C   0  0  0  0  0  0  0  0  0  0  0  0
    2.0967   -0.2310   -0.4213 C   0  0  0  0  0  0  0  0  0  0  0  0
   -3.4807    0.6212   -0.1149 C   0  0  0  0  0  0  0  0  0  0  0  0
   -2.3147   -1.9188   -0.0170 C   0  0  0  0  0  0  0  0  0  0  0  0
   -4.2820   -0.5136    0.0170 C   0  0  0  0  0  0  0  0  0  0  0  0
   -3.7004   -1.7811    0.0659 C   0  0  0  0  0  0  0  0  0  0  0  0
    2.8593   -0.3057    0.7446 C   0  0  0  0  0  0  0  0  0  0  0  0
    2.6878   -0.4910   -1.6581 C   0  0  0  0  0  0  0  0  0  0  0  0
    4.2116   -0.6402    0.6739 C   0  0  0  0  0  0  0  0  0  0  0  0
    4.0400   -0.8255   -1.7289 C   0  0  0  0  0  0  0  0  0  0  0  0
    4.8020   -0.9001   -0.5629 C   0  0  0  0  0  0  0  0  0  0  0  0
    1.4926    2.9694    0.6917 C   0  0  0  0  0  0  0  0  0  0  0  0
   -6.1817   -0.2424    1.4028 C   0  0  0  0  0  0  0  0  0  0  0  0
    5.5849    0.4911    2.2349 C   0  0  0  0  0  0  0  0  0  0  0  0
   -1.8635   -2.9071    0.0210 H   0  0  0  0  0  0  0  0  0  0  0  0
    2.4050   -0.1160    1.7148 H   0  0  0  0  0  0  0  0  0  0  0  0
    2.1067   -0.4372   -2.5755 H   0  0  0  0  0  0  0  0  0  0  0  0
    4.4940   -1.0268   -2.6954 H   0  0  0  0  0  0  0  0  0  0  0  0
   -3.4304    2.5495   -0.2392 H   0  0  0  0  0  0  0  0  0  0  0  0
    2.0721    2.2419    1.2637 H   0  0  0  0  0  0  0  0  0  0  0  0
    0.6353    3.3076    1.2845 H   0  0  0  0  0  0  0  0  0  0  0  0
    2.1355    3.8372    0.5150 H   0  0  0  0  0  0  0  0  0  0  0  0
   -5.4096   -2.6234    0.1906 H   0  0  0  0  0  0  0  0  0  0  0  0
   -5.9271   -1.1016    2.0317 H   0  0  0  0  0  0  0  0  0  0  0  0
   -5.8238    0.6805    1.8702 H   0  0  0  0  0  0  0  0  0  0  0  0
   -7.2704   -0.1871    1.3167 H   0  0  0  0  0  0  0  0  0  0  0  0
    6.4855   -1.2743    0.2557 H   0  0  0  0  0  0  0  0  0  0  0  0
    6.1587    0.2785    3.1412 H   0  0  0  0  0  0  0  0  0  0  0  0
    4.8420    1.2613    2.4663 H   0  0  0  0  0  0  0  0  0  0  0  0
    6.2730    0.8550    1.4651 H   0  0  0  0  0  0  0  0  0  0  0  0
  1 10  1  0  0  0  0
  1 11  1  0  0  0  0
  2 12  1  0  0  0  0
  2 24  1  0  0  0  0
  3 17  1  0  0  0  0
  3 25  1  0  0  0  0
  4 15  1  0  0  0  0
  4 31  1  0  0  0  0
  5 13  2  0  0  0  0
  6 18  1  0  0  0  0
  6 35  1  0  0  0  0
  7 21  1  0  0  0  0
  7 26  1  0  0  0  0
  8 23  1  0  0  0  0
  8 39  1  0  0  0  0
  9 10  2  0  0  0  0
  9 13  1  0  0  0  0
  9 15  1  0  0  0  0
 10 16  1  0  0  0  0
 11 12  2  0  0  0  0
 11 14  1  0  0  0  0
 12 13  1  0  0  0  0
 14 19  2  0  0  0  0
 14 20  1  0  0  0  0
 15 17  2  0  0  0  0
 16 18  2  0  0  0  0
 16 27  1  0  0  0  0
 17 18  1  0  0  0  0
 19 21  1  0  0  0  0
 19 28  1  0  0  0  0
 20 22  2  0  0  0  0
 20 29  1  0  0  0  0
 21 23  2  0  0  0  0
 22 23  1  0  0  0  0
 22 30  1  0  0  0  0
 24 32  1  0  0  0  0
 24 33  1  0  0  0  0
 24 34  1  0  0  0  0
 25 36  1  0  0  0  0
 25 37  1  0  0  0  0
 25 38  1  0  0  0  0
 26 40  1  0  0  0  0
 26 41  1  0  0  0  0
 26 42  1  0  0  0  0
M  END
>  <PUBCHEM_COMPOUND_CID>
5464461

>  <PUBCHEM_CONFORMER_RMSD>
0.8

>  <PUBCHEM_CONFORMER_DIVERSEORDER>
1
5
8
2
6
7
4
3

>  <PUBCHEM_MMFF94_PARTIAL_CHARGES>
33
1 -0.16
10 0.08
11 0.05
12 0.09
13 0.47
14 0.03
15 0.08
16 -0.15
17 0.08
18 0.08
19 -0.15
2 -0.36
20 -0.15
21 0.08
22 -0.15
23 0.08
24 0.28
25 0.28
26 0.28
27 0.15
28 0.15
29 0.15
3 -0.36
30 0.15
31 0.45
35 0.45
39 0.45
4 -0.53
5 -0.57
6 -0.53
7 -0.36
8 -0.53
9 0.09

>  <PUBCHEM_EFFECTIVE_ROTOR_COUNT>
4

>  <PUBCHEM_PHARMACOPHORE_FEATURES>
11
1 1 acceptor
1 2 acceptor
1 3 acceptor
1 4 donor
1 5 acceptor
1 6 donor
1 7 acceptor
1 8 donor
6 1 9 10 11 12 13 rings
6 14 19 20 21 22 23 rings
6 9 10 15 16 17 18 rings

>  <PUBCHEM_HEAVY_ATOM_COUNT>
26

>  <PUBCHEM_ATOM_DEF_STEREO_COUNT>
0

>  <PUBCHEM_ATOM_UDEF_STEREO_COUNT>
0

>  <PUBCHEM_BOND_DEF_STEREO_COUNT>
0

>  <PUBCHEM_BOND_UDEF_STEREO_COUNT>
0

>  <PUBCHEM_ISOTOPIC_ATOM_COUNT>
0

>  <PUBCHEM_COMPONENT_COUNT>
1

>  <PUBCHEM_CACTVS_TAUTO_COUNT>
69

>  <PUBCHEM_CONFORMER_ID>
0053618D00000001

>  <PUBCHEM_MMFF94_ENERGY>
106.1167

>  <PUBCHEM_FEATURE_SELFOVERLAP>
55.856

>  <PUBCHEM_SHAPE_FINGERPRINT>
10319926 262 18196917904509643802
11405975 8 18340493378151818355
12035758 1 18343299271073725513
12236239 1 17603591786017654126
12403259 415 17989202608342994348
12553582 1 18335417963278583447
12633257 1 18340218457237094367
12788726 201 18187087200298008233
13140716 1 18339364183867747051
13673619 4 17488477291267245230
13782708 43 17846218805106350806
13862211 1 18408604764796629807
14386348 63 18059577958075053246
14790565 3 17619078226664497325
15131766 46 15194415668771149264
15196674 1 18338523070563148143
17349148 13 17240483576955579418
17492 89 18051697938875971879
17804303 29 18410295804731466661
1813 80 17385995217497085700
18681886 176 18261682528278188646
19141452 34 17917713521872816447
200 152 16298385742993386406
20028762 73 18201157762885811119
21033648 29 17274809225672357314
21065201 7 18339644421952165198
21267235 1 18335150790880539519
21792934 111 18341331176480104313
21859007 373 18116412801074453845
22122407 14 15482675714320097507
22182313 1 18129106619402549247
2297311 6 18340778048341448294
23366157 5 17897448525908558852
23522609 53 17898889861531207325
23536379 177 15647052651364602959
23557571 272 18271530784718103844
23559900 14 18339359777068134741
3004659 81 18040440996890502774
335352 9 18409452488598846327
3411729 13 18195244645191272984
350125 39 18408612448630486789
3882209 13 17192040455598323886
3886686 26 17038642688677057202
4340502 62 14979964670590436407
474 4 12895076223258734868
5104073 3 18267876162928877091
57527293 21 17988342850770317638
59682541 52 13190604053699371234
59755656 215 18338803286703764358
6669772 16 13045945729230267912
6823239 73 18343867719339860792
8863177 126 17679040424392889291
9709674 26 18120659290899918807

>  <PUBCHEM_SHAPE_MULTIPOLES>
488.11
13.35
2.49
1.35
0.36
1.34
0.41
-5.61
4.54
-1.49
-0.11
2.23
-0.06
1.05

>  <PUBCHEM_SHAPE_SELFOVERLAP>
1075.216

>  <PUBCHEM_SHAPE_VOLUME>
263

>  <PUBCHEM_COORDINATE_TYPE>
2
5
10

$$$$
5922634
 OpenBabel09242400493D

 38 38  0  0  0  0  0  0  0  0999 V2000
    3.1940   -1.8906   -0.1759 O   0  0  0  0  0  0  0  0  0  0  0  0
   -1.6866   -1.6032   -0.0038 C   0  0  0  0  0  0  0  0  0  0  0  0
   -2.2151   -0.2399    0.5702 C   0  0  0  0  0  0  0  0  0  0  0  0
   -2.4599   -2.0149   -1.2705 C   0  0  0  0  0  0  0  0  0  0  0  0
   -1.9167   -2.6899    1.0662 C   0  0  0  0  0  0  0  0  0  0  0  0
   -0.2237   -1.4146   -0.3646 C   0  0  0  0  0  0  0  0  0  0  0  0
   -2.0495    0.9620   -0.3355 C   0  0  0  0  0  0  0  0  0  0  0  0
   -1.3188    2.0823   -0.1463 C   0  0  0  0  0  0  0  0  0  0  0  0
   -0.5207    2.4338    1.0977 C   0  0  0  0  0  0  0  0  0  0  0  0
    1.0119    2.3263    0.9461 C   0  0  0  0  0  0  0  0  0  0  0  0
    0.8584   -1.8952    0.2675 C   0  0  0  0  0  0  0  0  0  0  0  0
   -1.2952    3.1400   -1.2230 C   0  0  0  0  0  0  0  0  0  0  0  0
    1.4382    0.8894    0.8855 C   0  0  0  0  0  0  0  0  0  0  0  0
    2.1537    0.2664   -0.0701 C   0  0  0  0  0  0  0  0  0  0  0  0
    2.1707   -1.2381   -0.0120 C   0  0  0  0  0  0  0  0  0  0  0  0
    2.8594    0.8862   -1.2314 C   0  0  0  0  0  0  0  0  0  0  0  0
   -1.7346   -0.0560    1.5377 H   0  0  0  0  0  0  0  0  0  0  0  0
   -3.2875   -0.3377    0.7870 H   0  0  0  0  0  0  0  0  0  0  0  0
   -2.3082   -1.3119   -2.0970 H   0  0  0  0  0  0  0  0  0  0  0  0
   -2.1378   -3.0016   -1.6248 H   0  0  0  0  0  0  0  0  0  0  0  0
   -3.5367   -2.0684   -1.0740 H   0  0  0  0  0  0  0  0  0  0  0  0
   -1.5370   -3.6640    0.7363 H   0  0  0  0  0  0  0  0  0  0  0  0
   -1.4231   -2.4390    2.0121 H   0  0  0  0  0  0  0  0  0  0  0  0
   -2.9855   -2.8087    1.2796 H   0  0  0  0  0  0  0  0  0  0  0  0
   -0.0616   -0.7075   -1.1791 H   0  0  0  0  0  0  0  0  0  0  0  0
   -2.6020    0.8802   -1.2710 H   0  0  0  0  0  0  0  0  0  0  0  0
   -0.7638    3.4696    1.3710 H   0  0  0  0  0  0  0  0  0  0  0  0
   -0.8494    1.8383    1.9568 H   0  0  0  0  0  0  0  0  0  0  0  0
    1.4817    2.7810    1.8265 H   0  0  0  0  0  0  0  0  0  0  0  0
    1.3484    2.8993    0.0781 H   0  0  0  0  0  0  0  0  0  0  0  0
    0.8271   -2.6236    1.0667 H   0  0  0  0  0  0  0  0  0  0  0  0
   -0.2784    3.2786   -1.6032 H   0  0  0  0  0  0  0  0  0  0  0  0
   -1.6526    4.0955   -0.8253 H   0  0  0  0  0  0  0  0  0  0  0  0
   -1.9311    2.8825   -2.0767 H   0  0  0  0  0  0  0  0  0  0  0  0
    1.0392    0.2968    1.7093 H   0  0  0  0  0  0  0  0  0  0  0  0
    3.9155    0.5966   -1.2325 H   0  0  0  0  0  0  0  0  0  0  0  0
    2.8253    1.9783   -1.2151 H   0  0  0  0  0  0  0  0  0  0  0  0
    2.4098    0.5508   -2.1717 H   0  0  0  0  0  0  0  0  0  0  0  0
  1 15  2  0  0  0  0
  2  3  1  0  0  0  0
  2  4  1  0  0  0  0
  2  5  1  0  0  0  0
  2  6  1  0  0  0  0
  3  7  1  0  0  0  0
  3 17  1  0  0  0  0
  3 18  1  0  0  0  0
  4 19  1  0  0  0  0
  4 20  1  0  0  0  0
  4 21  1  0  0  0  0
  5 22  1  0  0  0  0
  5 23  1  0  0  0  0
  5 24  1  0  0  0  0
  6 11  2  0  0  0  0
  6 25  1  0  0  0  0
  7  8  2  0  0  0  0
  7 26  1  0  0  0  0
  8  9  1  0  0  0  0
  8 12  1  0  0  0  0
  9 10  1  0  0  0  0
  9 27  1  0  0  0  0
  9 28  1  0  0  0  0
 10 13  1  0  0  0  0
 10 29  1  0  0  0  0
 10 30  1  0  0  0  0
 11 15  1  0  0  0  0
 11 31  1  0  0  0  0
 12 32  1  0  0  0  0
 12 33  1  0  0  0  0
 12 34  1  0  0  0  0
 13 14  2  0  0  0  0
 13 35  1  0  0  0  0
 14 15  1  0  0  0  0
 14 16  1  0  0  0  0
 16 36  1  0  0  0  0
 16 37  1  0  0  0  0
 16 38  1  0  0  0  0
M  END
>  <PUBCHEM_COMPOUND_CID>
5922634

>  <PUBCHEM_CONFORMER_RMSD>
0.4

>  <PUBCHEM_CONFORMER_DIVERSEORDER>
1

>  <PUBCHEM_MMFF94_PARTIAL_CHARGES>
18
1 -0.57
10 0.14
11 -0.14
12 0.14
13 -0.29
14 -0.12
15 0.54
16 0.14
2 0.14
25 0.15
26 0.15
3 0.14
31 0.15
35 0.15
6 -0.29
7 -0.29
8 -0.28
9 0.14

>  <PUBCHEM_EFFECTIVE_ROTOR_COUNT>
0.8

>  <PUBCHEM_PHARMACOPHORE_FEATURES>
2
1 1 acceptor
3 2 4 5 hydrophobe

>  <PUBCHEM_HEAVY_ATOM_COUNT>
16

>  <PUBCHEM_ATOM_DEF_STEREO_COUNT>
0

>  <PUBCHEM_ATOM_UDEF_STEREO_COUNT>
0

>  <PUBCHEM_BOND_DEF_STEREO_COUNT>
3

>  <PUBCHEM_BOND_UDEF_STEREO_COUNT>
0

>  <PUBCHEM_ISOTOPIC_ATOM_COUNT>
0

>  <PUBCHEM_COMPONENT_COUNT>
1

>  <PUBCHEM_CACTVS_TAUTO_COUNT>
3

>  <PUBCHEM_CONFORMER_ID>
005A5F4A00000001

>  <PUBCHEM_MMFF94_ENERGY>
45.1027

>  <PUBCHEM_FEATURE_SELFOVERLAP>
10.148

>  <PUBCHEM_SHAPE_FINGERPRINT>
100427 49 18196092376797316607
104564 63 18341067283870407804
12524768 44 17764018469071808163
13140716 1 18411983563395841546
1420 336 18269269054354584418
14251711 518 18199467834260111958
14251745 187 17550959525663759916
14817 1 11640885935268858553
15881359 60 16975566381754396205
16945 1 18335138674255376192
19868273 325 18339927124825285719
19930374 2 17403412714167957361
20645476 183 17825960221110741506
20645477 70 17109587022754579403
21524375 3 17978229361980832751
22721475 48 18268994348241103041
22802520 49 18340773735856841626
2334 1 18268147732856609547
23419403 2 16605956554489608082
23559900 14 17913203166984757170
238 59 16465819683056701607
2748010 2 18051402165451368641
2897 32 17043734513427871408
66348 1 18196086861832188993
81228 2 18337099151112428753

>  <PUBCHEM_SHAPE_MULTIPOLES>
323.4
4.11
3.84
1.2
1.29
1.44
0.1
-1.96
0.41
-1.23
0.4
0.01
0.36
0.54

>  <PUBCHEM_SHAPE_SELFOVERLAP>
642.095

>  <PUBCHEM_SHAPE_VOLUME>
192

>  <PUBCHEM_COORDINATE_TYPE>
2
5
10

$$$$
62367
 OpenBabel09242400493D

 29 30  0  0  1  0  0  0  0  0999 V2000
   -1.7704    1.6051    0.1898 O   0  0  0  0  0  0  0  0  0  0  0  0
    0.6722   -0.4385   -0.0019 C   0  0  1  0  0  0  0  0  0  0  0  0
   -0.5224   -0.3002    0.8833 C   0  0  2  0  0  0  0  0  0  0  0  0
    0.1120   -1.6543    0.6854 C   0  0  0  0  0  0  0  0  0  0  0  0
   -1.6744    0.1890    0.0404 C   0  0  2  0  0  0  0  0  0  0  0  0
    0.2735   -0.0572   -1.3988 C   0  0  0  0  0  0  0  0  0  0  0  0
    1.9875    0.0733    0.4709 C   0  0  0  0  0  0  0  0  0  0  0  0
   -1.2628   -0.1368   -1.4108 C   0  0  0  0  0  0  0  0  0  0  0  0
   -2.9992   -0.4420    0.4389 C   0  0  0  0  0  0  0  0  0  0  0  0
    3.1524   -0.4520   -0.3904 C   0  0  0  0  0  0  0  0  0  0  0  0
    2.0315    1.6135    0.4933 C   0  0  0  0  0  0  0  0  0  0  0  0
   -0.4416    0.1603    1.8578 H   0  0  0  0  0  0  0  0  0  0  0  0
    0.6510   -2.0794    1.5243 H   0  0  0  0  0  0  0  0  0  0  0  0
   -0.4087   -2.3955    0.0913 H   0  0  0  0  0  0  0  0  0  0  0  0
    0.7013   -0.7364   -2.1434 H   0  0  0  0  0  0  0  0  0  0  0  0
    0.5726    0.9617   -1.6601 H   0  0  0  0  0  0  0  0  0  0  0  0
    2.1672   -0.2651    1.5003 H   0  0  0  0  0  0  0  0  0  0  0  0
   -1.6908    0.5549   -2.1434 H   0  0  0  0  0  0  0  0  0  0  0  0
   -1.5650   -1.1560   -1.6816 H   0  0  0  0  0  0  0  0  0  0  0  0
   -3.8151   -0.0562   -0.1819 H   0  0  0  0  0  0  0  0  0  0  0  0
   -2.9750   -1.5326    0.3458 H   0  0  0  0  0  0  0  0  0  0  0  0
   -3.2492   -0.1997    1.4781 H   0  0  0  0  0  0  0  0  0  0  0  0
    3.0892   -0.0900   -1.4221 H   0  0  0  0  0  0  0  0  0  0  0  0
    4.1137   -0.1285    0.0225 H   0  0  0  0  0  0  0  0  0  0  0  0
    3.1458   -1.5469   -0.4191 H   0  0  0  0  0  0  0  0  0  0  0  0
    2.0270    2.0471   -0.5112 H   0  0  0  0  0  0  0  0  0  0  0  0
    2.9474    1.9556    0.9881 H   0  0  0  0  0  0  0  0  0  0  0  0
    1.1816    2.0270    1.0455 H   0  0  0  0  0  0  0  0  0  0  0  0
   -2.0192    1.7945    1.1108 H   0  0  0  0  0  0  0  0  0  0  0  0
  1 29  1  0  0  0  0
  2  3  1  0  0  0  0
  2  4  1  0  0  0  0
  2  6  1  0  0  0  0
  2  7  1  1  0  0  0
  3  4  1  0  0  0  0
  3  5  1  0  0  0  0
  3 12  1  1  0  0  0
  4 13  1  0  0  0  0
  4 14  1  0  0  0  0
  5  1  1  1  0  0  0
  5  8  1  0  0  0  0
  5  9  1  0  0  0  0
  6  8  1  0  0  0  0
  6 15  1  0  0  0  0
  6 16  1  0  0  0  0
  7 10  1  0  0  0  0
  7 11  1  0  0  0  0
  7 17  1  0  0  0  0
  8 18  1  0  0  0  0
  8 19  1  0  0  0  0
  9 20  1  0  0  0  0
  9 21  1  0  0  0  0
  9 22  1  0  0  0  0
 10 23  1  0  0  0  0
 10 24  1  0  0  0  0
 10 25  1  0  0  0  0
 11 26  1  0  0  0  0
 11 27  1  0  0  0  0
 11 28  1  0  0  0  0
M  END
>  <PUBCHEM_COMPOUND_CID>
62367

>  <PUBCHEM_CONFORMER_RMSD>
0.4

>  <PUBCHEM_CONFORMER_DIVERSEORDER>
1
7
9
10
13
3
14
2
4
6
11
8
12
5

>  <PUBCHEM_MMFF94_PARTIAL_CHARGES>
11
1 -0.68
12 0.1
13 0.1
14 0.1
2 -0.19
29 0.4
3 -0.19
4 -0.2
5 0.38
6 0.09
7 0.09

>  <PUBCHEM_EFFECTIVE_ROTOR_COUNT>
1.8

>  <PUBCHEM_PHARMACOPHORE_FEATURES>
4
1 1 acceptor
1 1 donor
3 7 10 11 hydrophobe
6 2 3 4 5 6 8 rings

>  <PUBCHEM_HEAVY_ATOM_COUNT>
11

>  <PUBCHEM_ATOM_DEF_STEREO_COUNT>
0

>  <PUBCHEM_ATOM_UDEF_STEREO_COUNT>
3

>  <PUBCHEM_BOND_DEF_STEREO_COUNT>
0

>  <PUBCHEM_BOND_UDEF_STEREO_COUNT>
0

>  <PUBCHEM_ISOTOPIC_ATOM_COUNT>
0

>  <PUBCHEM_COMPONENT_COUNT>
1

>  <PUBCHEM_CACTVS_TAUTO_COUNT>
1

>  <PUBCHEM_CONFORMER_ID>
0000F39F00000001

>  <PUBCHEM_MMFF94_ENERGY>
29.5726

>  <PUBCHEM_FEATURE_SELFOVERLAP>
20.297

>  <PUBCHEM_SHAPE_FINGERPRINT>
10219947 1 16950569878244760155
10857977 72 16805318928943141073
11062470 55 12324239477342494563
12423570 1 10776765264369672207
13024252 1 12396289370329909478
14993402 34 16805612498426801878
15310529 11 17917709140762996206
16945 1 18343294864379419598
20645464 45 18188760773402601240
20653085 51 17917999381789265032
21040471 1 17967813851244294834
21922407 69 18196623286315763343
23235685 24 17821730520016393790
23419403 2 16387576244874289615
23552423 10 17275095163431298702
369184 2 18341326781562722874
5084963 1 18131914862120044064
68250623 7 17772467047705488935

>  <PUBCHEM_SHAPE_MULTIPOLES>
220.51
3.82
1.34
1.17
0.56
0.2
-0.4
0.3
0.26
0.18
0.34
-0.14
-0.04
0.23

>  <PUBCHEM_SHAPE_SELFOVERLAP>
452.932

>  <PUBCHEM_SHAPE_VOLUME>
132.3

>  <PUBCHEM_COORDINATE_TYPE>
2
5
10

$$$$
638011
 OpenBabel09242400493D

 27 26  0  0  0  0  0  0  0  0999 V2000
   -3.9102   -1.3533    0.2222 O   0  0  0  0  0  0  0  0  0  0  0  0
   -0.2255    1.8055    0.7006 C   0  0  0  0  0  0  0  0  0  0  0  0
    1.2716    1.6169    0.4210 C   0  0  0  0  0  0  0  0  0  0  0  0
   -1.1145    0.8320   -0.0468 C   0  0  0  0  0  0  0  0  0  0  0  0
    1.7628    0.2455    0.7937 C   0  0  0  0  0  0  0  0  0  0  0  0
    2.4207   -0.6400    0.0216 C   0  0  0  0  0  0  0  0  0  0  0  0
   -1.0442    0.9377   -1.5500 C   0  0  0  0  0  0  0  0  0  0  0  0
   -1.9511   -0.0609    0.5124 C   0  0  0  0  0  0  0  0  0  0  0  0
    2.8424   -1.9720    0.5828 C   0  0  0  0  0  0  0  0  0  0  0  0
    2.7849   -0.4332   -1.4212 C   0  0  0  0  0  0  0  0  0  0  0  0
   -2.8368   -0.9782   -0.2363 C   0  0  0  0  0  0  0  0  0  0  0  0
   -0.5156    2.8297    0.4348 H   0  0  0  0  0  0  0  0  0  0  0  0
   -0.4034    1.7117    1.7801 H   0  0  0  0  0  0  0  0  0  0  0  0
    1.4821    1.8708   -0.6208 H   0  0  0  0  0  0  0  0  0  0  0  0
    1.8269    2.3458    1.0246 H   0  0  0  0  0  0  0  0  0  0  0  0
    1.5675   -0.0304    1.8297 H   0  0  0  0  0  0  0  0  0  0  0  0
   -1.9846    0.6847   -2.0481 H   0  0  0  0  0  0  0  0  0  0  0  0
   -0.2507    0.2947   -1.9429 H   0  0  0  0  0  0  0  0  0  0  0  0
   -0.8236    1.9688   -1.8495 H   0  0  0  0  0  0  0  0  0  0  0  0
    3.9302   -2.0815    0.5214 H   0  0  0  0  0  0  0  0  0  0  0  0
    2.3782   -2.7858    0.0161 H   0  0  0  0  0  0  0  0  0  0  0  0
    2.5555   -2.0935    1.6327 H   0  0  0  0  0  0  0  0  0  0  0  0
    3.8691   -0.5197   -1.5492 H   0  0  0  0  0  0  0  0  0  0  0  0
    2.4905    0.5393   -1.8187 H   0  0  0  0  0  0  0  0  0  0  0  0
    2.3045   -1.1975   -2.0414 H   0  0  0  0  0  0  0  0  0  0  0  0
   -2.0507   -0.0994    1.5935 H   0  0  0  0  0  0  0  0  0  0  0  0
   -2.4954   -1.2870   -1.2366 H   0  0  0  0  0  0  0  0  0  0  0  0
  1 11  2  0  0  0  0
  2  3  1  0  0  0  0
  2  4  1  0  0  0  0
  2 12  1  0  0  0  0
  2 13  1  0  0  0  0
  3  5  1  0  0  0  0
  3 14  1  0  0  0  0
  3 15  1  0  0  0  0
  4  7  1  0  0  0  0
  4  8  2  0  0  0  0
  5  6  2  0  0  0  0
  5 16  1  0  0  0  0
  6  9  1  0  0  0  0
  6 10  1  0  0  0  0
  7 17  1  0  0  0  0
  7 18  1  0  0  0  0
  7 19  1  0  0  0  0
  8 11  1  0  0  0  0
  8 26  1  0  0  0  0
  9 20  1  0  0  0  0
  9 21  1  0  0  0  0
  9 22  1  0  0  0  0
 10 23  1  0  0  0  0
 10 24  1  0  0  0  0
 10 25  1  0  0  0  0
 11 27  1  0  0  0  0
M  END
>  <PUBCHEM_COMPOUND_CID>
638011

>  <PUBCHEM_CONFORMER_RMSD>
0.6

>  <PUBCHEM_CONFORMER_DIVERSEORDER>
1
39
42
26
33
22
14
16
35
6
32
34
23
3
41
20
15
8
38
49
7
5
48
44
17
2
19
25
40
18
46
13
31
10
9
27
4
45
12
11
36
47
24
29
37
28
43
30
21

>  <PUBCHEM_MMFF94_PARTIAL_CHARGES>
14
1 -0.57
10 0.14
11 0.5
16 0.15
2 0.14
26 0.15
27 0.06
3 0.14
4 -0.28
5 -0.29
6 -0.28
7 0.14
8 -0.14
9 0.14

>  <PUBCHEM_EFFECTIVE_ROTOR_COUNT>
4

>  <PUBCHEM_PHARMACOPHORE_FEATURES>
4
1 1 acceptor
1 7 hydrophobe
3 6 9 10 hydrophobe
4 2 3 4 5 hydrophobe

>  <PUBCHEM_HEAVY_ATOM_COUNT>
11

>  <PUBCHEM_ATOM_DEF_STEREO_COUNT>
0

>  <PUBCHEM_ATOM_UDEF_STEREO_COUNT>
0

>  <PUBCHEM_BOND_DEF_STEREO_COUNT>
1

>  <PUBCHEM_BOND_UDEF_STEREO_COUNT>
0

>  <PUBCHEM_ISOTOPIC_ATOM_COUNT>
0

>  <PUBCHEM_COMPONENT_COUNT>
1

>  <PUBCHEM_CACTVS_TAUTO_COUNT>
1

>  <PUBCHEM_CONFORMER_ID>
0009BC3B00000001

>  <PUBCHEM_MMFF94_ENERGY>
13.2141

>  <PUBCHEM_FEATURE_SELFOVERLAP>
20.317

>  <PUBCHEM_SHAPE_FINGERPRINT>
12897270 3 16298395647140465504
14115302 16 18046345223807376684
14252887 29 17917438665213562858
15276787 5 13182747987563794326
18186145 218 13840268069908732045
18522851 12 18194705703460944994
18522851 268 17531806844687676022
19766037 51 18337122231849919783
20201158 50 18335415815626072170
20281407 28 18334858324855444251
20645477 70 18200308961235525063
20711978 78 18057872726851040289
20711983 138 18200022928728703617
20820808 20 11891599257078783405
20871998 22 18202569470862922288
23500284 5 18269556052690821707
23557571 272 17458888405875221964
528862 383 18057882639619592308
58734985 102 17313950860537541829
59915604 170 15575009406490709748
81228 2 17413303564690091040
94968 8 18337677519650367307

>  <PUBCHEM_SHAPE_MULTIPOLES>
220.51
5.42
1.93
1.21
1.77
0.02
0.51
-4.01
0.13
-0.12
-0.4
-0.38
0.17
0.11

>  <PUBCHEM_SHAPE_SELFOVERLAP>
411.401

>  <PUBCHEM_SHAPE_VOLUME>
138.6

>  <PUBCHEM_COORDINATE_TYPE>
2
5
10

$$$$
638072
 OpenBabel09242400493D

 80 79  0  0  0  0  0  0  0  0999 V2000
   -0.8176   -1.2475   -1.6189 C   0  0  0  0  0  0  0  0  0  0  0  0
    4.2258   -1.0435    1.6688 C   0  0  0  0  0  0  0  0  0  0  0  0
    2.7689   -0.0574   -2.8236 C   0  0  0  0  0  0  0  0  0  0  0  0
    3.8733   -0.9496   -2.2426 C   0  0  0  0  0  0  0  0  0  0  0  0
   -1.0233   -2.6710   -1.0942 C   0  0  0  0  0  0  0  0  0  0  0  0
    3.0252   -0.9965    2.6209 C   0  0  0  0  0  0  0  0  0  0  0  0
    0.4664   -1.1048   -2.4045 C   0  0  0  0  0  0  0  0  0  0  0  0
    3.9027   -1.5075    0.2605 C   0  0  0  0  0  0  0  0  0  0  0  0
    1.4572   -0.2413   -2.1090 C   0  0  0  0  0  0  0  0  0  0  0  0
    4.1110   -0.6808   -0.7827 C   0  0  0  0  0  0  0  0  0  0  0  0
   -2.5216   -2.6111    0.9744 C   0  0  0  0  0  0  0  0  0  0  0  0
    1.7951    1.2316    2.3522 C   0  0  0  0  0  0  0  0  0  0  0  0
   -3.8697   -2.7052    1.6530 C   0  0  0  0  0  0  0  0  0  0  0  0
    0.6287    2.0692    1.8714 C   0  0  0  0  0  0  0  0  0  0  0  0
   -2.3208   -2.7906   -0.3454 C   0  0  0  0  0  0  0  0  0  0  0  0
    1.9246   -0.0923    2.1379 C   0  0  0  0  0  0  0  0  0  0  0  0
   -4.5737   -1.3481    1.7353 C   0  0  0  0  0  0  0  0  0  0  0  0
    1.0259    3.1989    0.9119 C   0  0  0  0  0  0  0  0  0  0  0  0
    0.6041   -2.0392   -3.5787 C   0  0  0  0  0  0  0  0  0  0  0  0
    3.4090   -2.9231    0.1442 C   0  0  0  0  0  0  0  0  0  0  0  0
   -1.3704   -2.2474    1.8753 C   0  0  0  0  0  0  0  0  0  0  0  0
    2.8312    1.9689    3.1607 C   0  0  0  0  0  0  0  0  0  0  0  0
   -4.8302   -0.7907    0.3631 C   0  0  0  0  0  0  0  0  0  0  0  0
   -0.1556    4.0024    0.4437 C   0  0  0  0  0  0  0  0  0  0  0  0
   -4.3713    0.3645   -0.1545 C   0  0  0  0  0  0  0  0  0  0  0  0
   -0.5325    4.2705   -0.8207 C   0  0  0  0  0  0  0  0  0  0  0  0
   -3.4608    1.3277    0.5527 C   0  0  0  0  0  0  0  0  0  0  0  0
   -4.7478    0.7758   -1.5526 C   0  0  0  0  0  0  0  0  0  0  0  0
    0.2766    3.7532   -1.9806 C   0  0  0  0  0  0  0  0  0  0  0  0
   -1.7307    5.0847   -1.2177 C   0  0  0  0  0  0  0  0  0  0  0  0
   -0.8195   -0.5416   -0.7781 H   0  0  0  0  0  0  0  0  0  0  0  0
   -1.6572   -0.9595   -2.2649 H   0  0  0  0  0  0  0  0  0  0  0  0
    4.9790   -1.7227    2.0892 H   0  0  0  0  0  0  0  0  0  0  0  0
    4.7022   -0.0544    1.6497 H   0  0  0  0  0  0  0  0  0  0  0  0
    3.0586    0.9976   -2.7259 H   0  0  0  0  0  0  0  0  0  0  0  0
    2.6815   -0.2263   -3.9007 H   0  0  0  0  0  0  0  0  0  0  0  0
    4.8079   -0.7451   -2.7795 H   0  0  0  0  0  0  0  0  0  0  0  0
    3.6359   -1.9970   -2.4453 H   0  0  0  0  0  0  0  0  0  0  0  0
   -0.1667   -2.9998   -0.4972 H   0  0  0  0  0  0  0  0  0  0  0  0
   -1.0773   -3.3814   -1.9288 H   0  0  0  0  0  0  0  0  0  0  0  0
    2.6050   -2.0033    2.7419 H   0  0  0  0  0  0  0  0  0  0  0  0
    3.3597   -0.7196    3.6261 H   0  0  0  0  0  0  0  0  0  0  0  0
    1.3156    0.4052   -1.2437 H   0  0  0  0  0  0  0  0  0  0  0  0
    4.4932    0.3182   -0.5742 H   0  0  0  0  0  0  0  0  0  0  0  0
   -4.5052   -3.4160    1.1075 H   0  0  0  0  0  0  0  0  0  0  0  0
   -3.7530   -3.1250    2.6594 H   0  0  0  0  0  0  0  0  0  0  0  0
    0.1172    2.4886    2.7477 H   0  0  0  0  0  0  0  0  0  0  0  0
   -0.1069    1.4230    1.3737 H   0  0  0  0  0  0  0  0  0  0  0  0
   -3.1848   -3.0305   -0.9634 H   0  0  0  0  0  0  0  0  0  0  0  0
    1.1593   -0.5798    1.5395 H   0  0  0  0  0  0  0  0  0  0  0  0
   -5.5426   -1.4850    2.2312 H   0  0  0  0  0  0  0  0  0  0  0  0
   -4.0030   -0.6696    2.3739 H   0  0  0  0  0  0  0  0  0  0  0  0
    1.5898    2.7609    0.0841 H   0  0  0  0  0  0  0  0  0  0  0  0
    1.7063    3.8937    1.4187 H   0  0  0  0  0  0  0  0  0  0  0  0
    0.8386   -3.0518   -3.2346 H   0  0  0  0  0  0  0  0  0  0  0  0
    1.3738   -1.7543   -4.2977 H   0  0  0  0  0  0  0  0  0  0  0  0
   -0.3363   -2.0752   -4.1402 H   0  0  0  0  0  0  0  0  0  0  0  0
    3.3759   -3.2964   -0.8806 H   0  0  0  0  0  0  0  0  0  0  0  0
    2.3983   -3.0086    0.5553 H   0  0  0  0  0  0  0  0  0  0  0  0
    4.0663   -3.5980    0.7030 H   0  0  0  0  0  0  0  0  0  0  0  0
   -1.3013   -2.9682    2.6974 H   0  0  0  0  0  0  0  0  0  0  0  0
   -0.3959   -2.2342    1.3890 H   0  0  0  0  0  0  0  0  0  0  0  0
   -1.5319   -1.2539    2.3069 H   0  0  0  0  0  0  0  0  0  0  0  0
    2.3465    2.5133    3.9785 H   0  0  0  0  0  0  0  0  0  0  0  0
    3.5979    1.3384    3.6137 H   0  0  0  0  0  0  0  0  0  0  0  0
    3.3559    2.6943    2.5305 H   0  0  0  0  0  0  0  0  0  0  0  0
   -5.4864   -1.4027   -0.2550 H   0  0  0  0  0  0  0  0  0  0  0  0
   -0.7668    4.4181    1.2441 H   0  0  0  0  0  0  0  0  0  0  0  0
   -2.5629    1.5023   -0.0501 H   0  0  0  0  0  0  0  0  0  0  0  0
   -3.9680    2.2875    0.6957 H   0  0  0  0  0  0  0  0  0  0  0  0
   -3.1213    0.9841    1.5310 H   0  0  0  0  0  0  0  0  0  0  0  0
   -5.2665    1.7400   -1.5368 H   0  0  0  0  0  0  0  0  0  0  0  0
   -3.8508    0.8735   -2.1731 H   0  0  0  0  0  0  0  0  0  0  0  0
   -5.4092    0.0505   -2.0381 H   0  0  0  0  0  0  0  0  0  0  0  0
   -0.1305    2.7981   -2.3277 H   0  0  0  0  0  0  0  0  0  0  0  0
    1.3389    3.6298   -1.7576 H   0  0  0  0  0  0  0  0  0  0  0  0
    0.2333    4.4597   -2.8176 H   0  0  0  0  0  0  0  0  0  0  0  0
   -1.4231    5.9741   -1.7769 H   0  0  0  0  0  0  0  0  0  0  0  0
   -2.2972    5.4189   -0.3423 H   0  0  0  0  0  0  0  0  0  0  0  0
   -2.4040    4.4901   -1.8437 H   0  0  0  0  0  0  0  0  0  0  0  0
  1  5  1  0  0  0  0
  1  7  1  0  0  0  0
  1 31  1  0  0  0  0
  1 32  1  0  0  0  0
  2  6  1  0  0  0  0
  2  8  1  0  0  0  0
  2 33  1  0  0  0  0
  2 34  1  0  0  0  0
  3  4  1  0  0  0  0
  3  9  1  0  0  0  0
  3 35  1  0  0  0  0
  3 36  1  0  0  0  0
  4 10  1  0  0  0  0
  4 37  1  0  0  0  0
  4 38  1  0  0  0  0
  5 15  1  0  0  0  0
  5 39  1  0  0  0  0
  5 40  1  0  0  0  0
  6 16  1  0  0  0  0
  6 41  1  0  0  0  0
  6 42  1  0  0  0  0
  7  9  2  0  0  0  0
  7 19  1  0  0  0  0
  8 10  2  0  0  0  0
  8 20  1  0  0  0  0
  9 43  1  0  0  0  0
 10 44  1  0  0  0  0
 11 13  1  0  0  0  0
 11 15  2  0  0  0  0
 11 21  1  0  0  0  0
 12 14  1  0  0  0  0
 12 16  2  0  0  0  0
 12 22  1  0  0  0  0
 13 17  1  0  0  0  0
 13 45  1  0  0  0  0
 13 46  1  0  0  0  0
 14 18  1  0  0  0  0
 14 47  1  0  0  0  0
 14 48  1  0  0  0  0
 15 49  1  0  0  0  0
 16 50  1  0  0  0  0
 17 23  1  0  0  0  0
 17 51  1  0  0  0  0
 17 52  1  0  0  0  0
 18 24  1  0  0  0  0
 18 53  1  0  0  0  0
 18 54  1  0  0  0  0
 19 55  1  0  0  0  0
 19 56  1  0  0  0  0
 19 57  1  0  0  0  0
 20 58  1  0  0  0  0
 20 59  1  0  0  0  0
 20 60  1  0  0  0  0
 21 61  1  0  0  0  0
 21 62  1  0  0  0  0
 21 63  1  0  0  0  0
 22 64  1  0  0  0  0
 22 65  1  0  0  0  0
 22 66  1  0  0  0  0
 23 25  2  0  0  0  0
 23 67  1  0  0  0  0
 24 26  2  0  0  0  0
 24 68  1  0  0  0  0
 25 27  1  0  0  0  0
 25 28  1  0  0  0  0
 26 29  1  0  0  0  0
 26 30  1  0  0  0  0
 27 69  1  0  0  0  0
 27 70  1  0  0  0  0
 27 71  1  0  0  0  0
 28 72  1  0  0  0  0
 28 73  1  0  0  0  0
 28 74  1  0  0  0  0
 29 75  1  0  0  0  0
 29 76  1  0  0  0  0
 29 77  1  0  0  0  0
 30 78  1  0  0  0  0
 30 79  1  0  0  0  0
 30 80  1  0  0  0  0
M  END
>  <PUBCHEM_COMPOUND_CID>
638072

>  <PUBCHEM_CONFORMER_RMSD>
1.8

>  <PUBCHEM_CONFORMER_DIVERSEORDER>
5
66
107
147
90
25
82
63
79
24
88
13
121
78
1
114
141
45
6
73
95
28
86
20
46
89
129
139
67
113
72
77
70
15
111
11
130
142
3
59
34
49
115
84
43
132
10
39
40
145
22
112
94
29
103
17
119
12
100
48
136
57
85
30
62
105
138
69
106
91
98
135
37
118
2
71
148
53
144
54
146
33
120
109
76
125
108
137
133
81
96
140
131
38
83
31
44
68
65
14
60
16
116
124
35
87
92
61
122
19
97
42
99
123
134
128
26
74
56
23
143
9
51
110
104
32
127
4
21
64
41
58
101
18
93
27
117
102
126
75
50
7
47
80
55
52
8
36

>  <PUBCHEM_MMFF94_PARTIAL_CHARGES>
36
1 0.14
10 -0.29
11 -0.28
12 -0.28
13 0.14
14 0.14
15 -0.29
16 -0.29
17 0.14
18 0.14
19 0.14
2 0.14
20 0.14
21 0.14
22 0.14
23 -0.29
24 -0.29
25 -0.28
26 -0.28
27 0.14
28 0.14
29 0.14
3 0.14
30 0.14
4 0.14
43 0.15
44 0.15
49 0.15
5 0.14
50 0.15
6 0.14
67 0.15
68 0.15
7 -0.28
8 -0.28
9 -0.29

>  <PUBCHEM_EFFECTIVE_ROTOR_COUNT>
15

>  <PUBCHEM_PHARMACOPHORE_FEATURES>
11
1 19 hydrophobe
1 20 hydrophobe
1 21 hydrophobe
1 22 hydrophobe
3 25 27 28 hydrophobe
3 26 29 30 hydrophobe
4 1 5 7 15 hydrophobe
4 11 13 17 23 hydrophobe
4 12 14 18 24 hydrophobe
4 2 6 8 16 hydrophobe
4 3 4 9 10 hydrophobe

>  <PUBCHEM_HEAVY_ATOM_COUNT>
30

>  <PUBCHEM_ATOM_DEF_STEREO_COUNT>
0

>  <PUBCHEM_ATOM_UDEF_STEREO_COUNT>
0

>  <PUBCHEM_BOND_DEF_STEREO_COUNT>
4

>  <PUBCHEM_BOND_UDEF_STEREO_COUNT>
0

>  <PUBCHEM_ISOTOPIC_ATOM_COUNT>
0

>  <PUBCHEM_COMPONENT_COUNT>
1

>  <PUBCHEM_CACTVS_TAUTO_COUNT>
1

>  <PUBCHEM_CONFORMER_ID>
0009BC7800000005

>  <PUBCHEM_MMFF94_ENERGY>
26.3605

>  <PUBCHEM_FEATURE_SELFOVERLAP>
55.877

>  <PUBCHEM_SHAPE_FINGERPRINT>
11244481 83 18193001645052673706
12156800 1 18120656833941255260
12422481 6 17773010138494681154
12539745 222 17840900411913527782
12788726 201 18188221900782640278
15721738 202 16154007845069648763
17921350 177 18268992166476805393
20600515 1 18337117778195869093
21860390 5 18048589610396577144
3493558 16 17615123283059624067
35225 105 18197216936858985830

>  <PUBCHEM_SHAPE_MULTIPOLES>
617.39
8.75
5.76
3.75
4.83
8.14
0.7
-5.27
-2.23
2.4
0.99
-3.12
-0.46
2.51

>  <PUBCHEM_SHAPE_SELFOVERLAP>
1176.673

>  <PUBCHEM_SHAPE_VOLUME>
375.2

>  <PUBCHEM_COORDINATE_TYPE>
2
5
10

$$$$
6427110
 OpenBabel09242400493D

 29 28  0  0  0  0  0  0  0  0999 V2000
    0.0443    0.1780    0.4823 C   0  0  0  0  0  0  0  0  0  0  0  0
   -0.8908    0.1524   -0.7342 C   0  0  0  0  0  0  0  0  0  0  0  0
    1.4466   -0.3173    0.1856 C   0  0  0  0  0  0  0  0  0  0  0  0
   -2.2293    0.7750   -0.4474 C   0  0  0  0  0  0  0  0  0  0  0  0
   -3.3470    0.1729    0.0011 C   0  0  0  0  0  0  0  0  0  0  0  0
    1.5331   -1.7630   -0.2367 C   0  0  0  0  0  0  0  0  0  0  0  0
    2.5675    0.4295    0.2458 C   0  0  0  0  0  0  0  0  0  0  0  0
   -4.6567    0.8586    0.2673 C   0  0  0  0  0  0  0  0  0  0  0  0
   -3.3591   -1.3097    0.2636 C   0  0  0  0  0  0  0  0  0  0  0  0
    3.9163    0.0048   -0.0575 C   0  0  0  0  0  0  0  0  0  0  0  0
    4.9751    0.8187    0.0301 C   0  0  0  0  0  0  0  0  0  0  0  0
   -0.3787   -0.4274    1.2943 H   0  0  0  0  0  0  0  0  0  0  0  0
    0.0981    1.2041    0.8704 H   0  0  0  0  0  0  0  0  0  0  0  0
   -0.4322    0.7168   -1.5572 H   0  0  0  0  0  0  0  0  0  0  0  0
   -1.0063   -0.8663   -1.1198 H   0  0  0  0  0  0  0  0  0  0  0  0
   -2.2716    1.8507   -0.6138 H   0  0  0  0  0  0  0  0  0  0  0  0
    0.7027   -2.3355    0.1933 H   0  0  0  0  0  0  0  0  0  0  0  0
    1.4691   -1.8477   -1.3262 H   0  0  0  0  0  0  0  0  0  0  0  0
    2.4405   -2.2634    0.1125 H   0  0  0  0  0  0  0  0  0  0  0  0
    2.4606    1.4709    0.5468 H   0  0  0  0  0  0  0  0  0  0  0  0
   -5.4473    0.4265   -0.3542 H   0  0  0  0  0  0  0  0  0  0  0  0
   -4.9384    0.7500    1.3195 H   0  0  0  0  0  0  0  0  0  0  0  0
   -4.6028    1.9292    0.0441 H   0  0  0  0  0  0  0  0  0  0  0  0
   -3.9973   -1.8138   -0.4697 H   0  0  0  0  0  0  0  0  0  0  0  0
   -2.3756   -1.7835    0.2356 H   0  0  0  0  0  0  0  0  0  0  0  0
   -3.7670   -1.5064    1.2615 H   0  0  0  0  0  0  0  0  0  0  0  0
    4.0939   -1.0114   -0.3918 H   0  0  0  0  0  0  0  0  0  0  0  0
    5.9665    0.4546   -0.2181 H   0  0  0  0  0  0  0  0  0  0  0  0
    4.8831    1.8523    0.3467 H   0  0  0  0  0  0  0  0  0  0  0  0
  1  2  1  0  0  0  0
  1  3  1  0  0  0  0
  1 12  1  0  0  0  0
  1 13  1  0  0  0  0
  2  4  1  0  0  0  0
  2 14  1  0  0  0  0
  2 15  1  0  0  0  0
  3  6  1  0  0  0  0
  3  7  2  0  0  0  0
  4  5  2  0  0  0  0
  4 16  1  0  0  0  0
  5  8  1  0  0  0  0
  5  9  1  0  0  0  0
  6 17  1  0  0  0  0
  6 18  1  0  0  0  0
  6 19  1  0  0  0  0
  7 10  1  0  0  0  0
  7 20  1  0  0  0  0
  8 21  1  0  0  0  0
  8 22  1  0  0  0  0
  8 23  1  0  0  0  0
  9 24  1  0  0  0  0
  9 25  1  0  0  0  0
  9 26  1  0  0  0  0
 10 11  2  0  0  0  0
 10 27  1  0  0  0  0
 11 28  1  0  0  0  0
 11 29  1  0  0  0  0
M  END
>  <PUBCHEM_COMPOUND_CID>
6427110

>  <PUBCHEM_CONFORMER_RMSD>
0.6

>  <PUBCHEM_CONFORMER_DIVERSEORDER>
1
4
20
30
53
58
28
17
52
7
34
5
19
42
55
33
15
9
60
35
21
13
38
37
16
25
26
31
10
32
44
46
18
43
50
24
23
54
56
39
59
11
2
27
47
51
29
8
41
6
14
61
3
22
49
40
48
12
45
57
36

>  <PUBCHEM_MMFF94_PARTIAL_CHARGES>
16
1 0.14
10 -0.15
11 -0.3
16 0.15
2 0.14
20 0.15
27 0.15
28 0.15
29 0.15
3 -0.28
4 -0.29
5 -0.28
6 0.14
7 -0.15
8 0.14
9 0.14

>  <PUBCHEM_EFFECTIVE_ROTOR_COUNT>
4

>  <PUBCHEM_PHARMACOPHORE_FEATURES>
4
1 11 hydrophobe
1 6 hydrophobe
3 5 8 9 hydrophobe
4 1 2 3 4 hydrophobe

>  <PUBCHEM_HEAVY_ATOM_COUNT>
11

>  <PUBCHEM_ATOM_DEF_STEREO_COUNT>
0

>  <PUBCHEM_ATOM_UDEF_STEREO_COUNT>
0

>  <PUBCHEM_BOND_DEF_STEREO_COUNT>
1

>  <PUBCHEM_BOND_UDEF_STEREO_COUNT>
0

>  <PUBCHEM_ISOTOPIC_ATOM_COUNT>
0

>  <PUBCHEM_COMPONENT_COUNT>
1

>  <PUBCHEM_CACTVS_TAUTO_COUNT>
1

>  <PUBCHEM_CONFORMER_ID>
006211E600000001

>  <PUBCHEM_MMFF94_ENERGY>
13.2454

>  <PUBCHEM_FEATURE_SELFOVERLAP>
20.304

>  <PUBCHEM_SHAPE_FINGERPRINT>
11062470 55 17603586322312825161
124424 183 10447928381884449294
12500047 106 18412821383246241163
12932764 1 17202746138371153193
13214271 11 18409164433099267735
14123238 8 18409165532558277700
14445660 50 18411142411715767113
14993402 34 15697996336303967297
15048467 5 18412546488012118313
17834072 33 17989198274731503445
17834076 25 18412825776902865425
18186145 218 17560508590998356912
190213 19 17060340729531110312
20279233 1 18334018272360489459
20645477 56 18187360987911259717
20645477 70 17916303844622970543
20711985 327 16660366991085903383
20828058 44 18334857229448983643
21119208 17 16057161718175497480
22485316 2 18261108556621072659
23402539 116 17458056084157122454
23402655 69 18130786737335817324
23557571 272 17531247188842055308
265663 24 17603297168367099738
2916195 48 17916574475350525720
366044 4 18411698812076332938
42 15 9151172060435256409
42788 4 18412825789460752160
449060 50 18409451367000653365
57812782 119 9007053569808994849
58051976 378 18410573976582713310

>  <PUBCHEM_SHAPE_MULTIPOLES>
226.37
9.8
1.27
0.73
1.69
0.55
0.03
-2.56
-0.66
-0.18
0.02
-0.11
-0.02
0.17

>  <PUBCHEM_SHAPE_SELFOVERLAP>
419.708

>  <PUBCHEM_SHAPE_VOLUME>
143.7

>  <PUBCHEM_COORDINATE_TYPE>
2
5
10

$$$$
6429050
 OpenBabel09242400493D

 27 27  0  0  1  0  0  0  0  0999 V2000
   -0.0311    2.0570    1.1091 O   0  0  0  0  0  0  0  0  0  0  0  0
    0.0004   -1.0990    0.9847 C   0  0  0  0  0  0  0  0  0  0  0  0
   -0.7615   -0.0495    0.2218 C   0  0  0  0  0  0  0  0  0  0  0  0
    1.3120   -1.4384    0.2661 C   0  0  0  0  0  0  0  0  0  0  0  0
    0.0019    1.2247   -0.0484 C   0  0  2  0  0  0  0  0  0  0  0  0
    2.0468   -0.2286   -0.2643 C   0  0  0  0  0  0  0  0  0  0  0  0
    1.4469    0.9703   -0.3829 C   0  0  0  0  0  0  0  0  0  0  0  0
   -2.0070   -0.2517   -0.2321 C   0  0  0  0  0  0  0  0  0  0  0  0
    3.4795   -0.4424   -0.6535 C   0  0  0  0  0  0  0  0  0  0  0  0
   -2.7556    0.8034   -0.9915 C   0  0  0  0  0  0  0  0  0  0  0  0
   -2.7322   -1.5458   -0.0091 C   0  0  0  0  0  0  0  0  0  0  0  0
    0.2311   -0.6947    1.9800 H   0  0  0  0  0  0  0  0  0  0  0  0
   -0.5539   -2.0230    1.1688 H   0  0  0  0  0  0  0  0  0  0  0  0
    1.1072   -2.1157   -0.5728 H   0  0  0  0  0  0  0  0  0  0  0  0
    1.9559   -1.9818    0.9683 H   0  0  0  0  0  0  0  0  0  0  0  0
   -0.4152    1.7911   -0.8860 H   0  0  0  0  0  0  0  0  0  0  0  0
    2.0161    1.8202   -0.7525 H   0  0  0  0  0  0  0  0  0  0  0  0
    3.5503   -1.2118   -1.4290 H   0  0  0  0  0  0  0  0  0  0  0  0
    4.0644   -0.7667    0.2132 H   0  0  0  0  0  0  0  0  0  0  0  0
    3.9416    0.4697   -1.0456 H   0  0  0  0  0  0  0  0  0  0  0  0
   -2.5978    0.6832   -2.0678 H   0  0  0  0  0  0  0  0  0  0  0  0
   -3.8315    0.7179   -0.7983 H   0  0  0  0  0  0  0  0  0  0  0  0
   -2.4936    1.8235   -0.6979 H   0  0  0  0  0  0  0  0  0  0  0  0
   -3.0497   -1.6376    1.0345 H   0  0  0  0  0  0  0  0  0  0  0  0
   -3.6318   -1.6035   -0.6323 H   0  0  0  0  0  0  0  0  0  0  0  0
   -2.1207   -2.4101   -0.2875 H   0  0  0  0  0  0  0  0  0  0  0  0
    0.4136    2.8934    0.8878 H   0  0  0  0  0  0  0  0  0  0  0  0
  1  5  1  0  0  0  0
  1 27  1  0  0  0  0
  2  3  1  0  0  0  0
  2  4  1  0  0  0  0
  2 12  1  0  0  0  0
  2 13  1  0  0  0  0
  3  5  1  0  0  0  0
  3  8  2  0  0  0  0
  4  6  1  0  0  0  0
  4 14  1  0  0  0  0
  4 15  1  0  0  0  0
  5  7  1  0  0  0  0
  5 16  1  6  0  0  0
  6  7  2  0  0  0  0
  6  9  1  0  0  0  0
  7 17  1  0  0  0  0
  8 10  1  0  0  0  0
  8 11  1  0  0  0  0
  9 18  1  0  0  0  0
  9 19  1  0  0  0  0
  9 20  1  0  0  0  0
 10 21  1  0  0  0  0
 10 22  1  0  0  0  0
 10 23  1  0  0  0  0
 11 24  1  0  0  0  0
 11 25  1  0  0  0  0
 11 26  1  0  0  0  0
M  END
>  <PUBCHEM_COMPOUND_CID>
6429050

>  <PUBCHEM_CONFORMER_RMSD>
0.4

>  <PUBCHEM_CONFORMER_DIVERSEORDER>
1
2
3

>  <PUBCHEM_MMFF94_PARTIAL_CHARGES>
13
1 -0.68
10 0.14
11 0.14
17 0.15
2 0.14
27 0.4
3 -0.28
4 0.14
5 0.56
6 -0.28
7 -0.29
8 -0.28
9 0.14

>  <PUBCHEM_EFFECTIVE_ROTOR_COUNT>
0.6

>  <PUBCHEM_PHARMACOPHORE_FEATURES>
4
1 1 acceptor
1 1 donor
3 8 10 11 hydrophobe
6 2 3 4 5 6 7 rings

>  <PUBCHEM_HEAVY_ATOM_COUNT>
11

>  <PUBCHEM_ATOM_DEF_STEREO_COUNT>
0

>  <PUBCHEM_ATOM_UDEF_STEREO_COUNT>
1

>  <PUBCHEM_BOND_DEF_STEREO_COUNT>
0

>  <PUBCHEM_BOND_UDEF_STEREO_COUNT>
0

>  <PUBCHEM_ISOTOPIC_ATOM_COUNT>
0

>  <PUBCHEM_COMPONENT_COUNT>
1

>  <PUBCHEM_CACTVS_TAUTO_COUNT>
1

>  <PUBCHEM_CONFORMER_ID>
0062197A00000001

>  <PUBCHEM_MMFF94_ENERGY>
12.9031

>  <PUBCHEM_FEATURE_SELFOVERLAP>
20.297

>  <PUBCHEM_SHAPE_FINGERPRINT>
11206711 2 18187081788765874207
12423570 1 10680613865958358688
12897270 3 18411138009042063846
14128692 85 18410296951186846431
15775835 57 17822293435684079431
161256 15 18121774191326847143
16945 1 18335414617282639061
17844478 74 17677349297898796763
18185500 45 18118681024124997658
20201158 50 18409166597462416302
20653085 51 16733279996664812652
20711985 344 17630327432821665457
21293036 1 18261118512439660990
23211744 25 18113892801594900723
23402539 116 18411694375311858406
23402655 69 18190442897602685989
23552423 10 18187082879571295183
23559900 14 18410572873836382086
2748010 2 18264486372004959164
29004967 10 18060420243726226178
3312278 4 18410295778660787462
353137 74 18190741929566957864
5084963 1 18189055459376830951
528886 8 17676482826516490397

>  <PUBCHEM_SHAPE_MULTIPOLES>
220.51
4.32
1.74
0.94
0.56
0.17
0.1
-0.92
-1.64
-0.37
0.37
-0.06
0.18
0.17

>  <PUBCHEM_SHAPE_SELFOVERLAP>
439.064

>  <PUBCHEM_SHAPE_VOLUME>
131.8

>  <PUBCHEM_COORDINATE_TYPE>
2
5
10

$$$$
6429099
 OpenBabel09242400493D

 29 30  0  0  1  0  0  0  0  0999 V2000
   -2.2767   -0.9814   -0.2352 O   0  0  0  0  0  0  0  0  0  0  0  0
   -2.7352    1.1836    0.4441 O   0  0  0  0  0  0  0  0  0  0  0  0
    1.6785   -0.6785    0.3666 C   0  0  0  0  0  0  0  0  0  0  0  0
    2.1546    0.5578   -0.4644 C   0  0  1  0  0  0  0  0  0  0  0  0
    0.3915   -0.5941   -0.5253 C   0  0  2  0  0  0  0  0  0  0  0  0
    1.3782   -0.1126   -1.6449 C   0  0  0  0  0  0  0  0  0  0  0  0
    1.5199    1.8817    0.0029 C   0  0  0  0  0  0  0  0  0  0  0  0
   -0.5287    0.4960   -0.0814 C   0  0  0  0  0  0  0  0  0  0  0  0
    1.5086   -0.4840    1.8602 C   0  0  0  0  0  0  0  0  0  0  0  0
    2.5073   -1.9360    0.1507 C   0  0  0  0  0  0  0  0  0  0  0  0
    0.0293    1.6918    0.1715 C   0  0  0  0  0  0  0  0  0  0  0  0
   -1.9661    0.3034    0.0805 C   0  0  0  0  0  0  0  0  0  0  0  0
   -3.6611   -1.3279   -0.1254 C   0  0  0  0  0  0  0  0  0  0  0  0
    3.2356    0.6450   -0.6135 H   0  0  0  0  0  0  0  0  0  0  0  0
   -0.0825   -1.5556   -0.7395 H   0  0  0  0  0  0  0  0  0  0  0  0
    1.9043   -0.8903   -2.2061 H   0  0  0  0  0  0  0  0  0  0  0  0
    0.9629    0.5759   -2.3904 H   0  0  0  0  0  0  0  0  0  0  0  0
    1.7022    2.6639   -0.7423 H   0  0  0  0  0  0  0  0  0  0  0  0
    1.9672    2.2116    0.9466 H   0  0  0  0  0  0  0  0  0  0  0  0
    2.4854   -0.3878    2.3493 H   0  0  0  0  0  0  0  0  0  0  0  0
    0.9312    0.3912    2.1625 H   0  0  0  0  0  0  0  0  0  0  0  0
    1.0057   -1.3503    2.3066 H   0  0  0  0  0  0  0  0  0  0  0  0
    2.0089   -2.8070    0.5926 H   0  0  0  0  0  0  0  0  0  0  0  0
    2.7014   -2.1899   -0.8938 H   0  0  0  0  0  0  0  0  0  0  0  0
    3.4875   -1.8400    0.6329 H   0  0  0  0  0  0  0  0  0  0  0  0
   -0.5542    2.5460    0.4991 H   0  0  0  0  0  0  0  0  0  0  0  0
   -3.7719   -2.3788   -0.4054 H   0  0  0  0  0  0  0  0  0  0  0  0
   -4.2593   -0.7169   -0.8081 H   0  0  0  0  0  0  0  0  0  0  0  0
   -4.0020   -1.2009    0.9066 H   0  0  0  0  0  0  0  0  0  0  0  0
  1 12  1  0  0  0  0
  1 13  1  0  0  0  0
  2 12  2  0  0  0  0
  3  4  1  0  0  0  0
  3  5  1  0  0  0  0
  3  9  1  0  0  0  0
  3 10  1  0  0  0  0
  4  6  1  0  0  0  0
  4  7  1  0  0  0  0
  4 14  1  6  0  0  0
  5  6  1  0  0  0  0
  5  8  1  0  0  0  0
  5 15  1  6  0  0  0
  6 16  1  0  0  0  0
  6 17  1  0  0  0  0
  7 11  1  0  0  0  0
  7 18  1  0  0  0  0
  7 19  1  0  0  0  0
  8 11  2  0  0  0  0
  8 12  1  0  0  0  0
  9 20  1  0  0  0  0
  9 21  1  0  0  0  0
  9 22  1  0  0  0  0
 10 23  1  0  0  0  0
 10 24  1  0  0  0  0
 10 25  1  0  0  0  0
 11 26  1  0  0  0  0
 13 27  1  0  0  0  0
 13 28  1  0  0  0  0
 13 29  1  0  0  0  0
M  END
>  <PUBCHEM_COMPOUND_CID>
6429099

>  <PUBCHEM_CONFORMER_RMSD>
0.6

>  <PUBCHEM_CONFORMER_DIVERSEORDER>
1
6
3
4
2
5

>  <PUBCHEM_MMFF94_PARTIAL_CHARGES>
9
1 -0.43
11 -0.29
12 0.71
13 0.28
2 -0.57
26 0.15
5 0.12
7 0.14
8 -0.1

>  <PUBCHEM_EFFECTIVE_ROTOR_COUNT>
2.6

>  <PUBCHEM_PHARMACOPHORE_FEATURES>
3
1 2 acceptor
3 3 9 10 hydrophobe
7 3 4 5 6 7 8 11 rings

>  <PUBCHEM_HEAVY_ATOM_COUNT>
13

>  <PUBCHEM_ATOM_DEF_STEREO_COUNT>
0

>  <PUBCHEM_ATOM_UDEF_STEREO_COUNT>
2

>  <PUBCHEM_BOND_DEF_STEREO_COUNT>
0

>  <PUBCHEM_BOND_UDEF_STEREO_COUNT>
0

>  <PUBCHEM_ISOTOPIC_ATOM_COUNT>
0

>  <PUBCHEM_COMPONENT_COUNT>
1

>  <PUBCHEM_CACTVS_TAUTO_COUNT>
1

>  <PUBCHEM_CONFORMER_ID>
006219AB00000001

>  <PUBCHEM_MMFF94_ENERGY>
44.2743

>  <PUBCHEM_FEATURE_SELFOVERLAP>
15.223

>  <PUBCHEM_SHAPE_FINGERPRINT>
10857977 72 18059850675502462849
11769659 78 18189049802973909146
12423570 1 13074140028795538708
12932764 1 18186809058532456045
14128692 85 18114749213773331430
16945 1 18191037883063007228
17990270 104 18412266137957675263
20559304 39 18411980295057389707
20645477 70 18263072357846284647
20653091 64 18334855038973581672
21501502 16 18411422812808423757
21501925 9 18340194258837506307
21524375 3 17839463632813374696
232386 152 18337112258983298910
23419403 2 17101380010023806300
23552423 10 18336273439212348061
2748010 2 18343300344857903357
5084963 1 17632305600368973735
568465 68 16987992778730306166
7364860 26 18341048605374064136
74978 22 18410292467689557597
8030462 33 18186811304710427711

>  <PUBCHEM_SHAPE_MULTIPOLES>
255.8
4.37
1.83
1.17
4.44
0.16
-0.13
-1.75
-0.07
-0.41
-0.13
-0.7
-0.16
-0.38

>  <PUBCHEM_SHAPE_SELFOVERLAP>
539.507

>  <PUBCHEM_SHAPE_VOLUME>
146.9

>  <PUBCHEM_COORDINATE_TYPE>
2
5
10

$$$$
6437425
 OpenBabel09242400493D

 25 24  0  0  0  0  0  0  0  0999 V2000
   -0.3162   -0.1801    0.0935 O   0  0  0  0  0  0  0  0  0  0  0  0
    0.9651   -0.9440   -1.6602 O   0  0  0  0  0  0  0  0  0  0  0  0
   -1.4970   -0.3139   -0.7048 C   0  0  0  0  0  0  0  0  0  0  0  0
    1.9842   -0.3453    0.4399 C   0  0  0  0  0  0  0  0  0  0  0  0
   -2.6961    0.1092    0.0956 C   0  0  0  0  0  0  0  0  0  0  0  0
    0.8495   -0.5324   -0.5146 C   0  0  0  0  0  0  0  0  0  0  0  0
    2.3458   -1.4835    1.3475 C   0  0  0  0  0  0  0  0  0  0  0  0
    2.5739    0.8643    0.4214 C   0  0  0  0  0  0  0  0  0  0  0  0
   -2.7202    1.5302    0.5803 C   0  0  0  0  0  0  0  0  0  0  0  0
    2.2187    2.0312   -0.4444 C   0  0  0  0  0  0  0  0  0  0  0  0
   -3.7078   -0.7356    0.3458 C   0  0  0  0  0  0  0  0  0  0  0  0
   -1.5882   -1.3560   -1.0346 H   0  0  0  0  0  0  0  0  0  0  0  0
   -1.4103    0.3246   -1.5924 H   0  0  0  0  0  0  0  0  0  0  0  0
    3.1725   -1.2209    2.0155 H   0  0  0  0  0  0  0  0  0  0  0  0
    1.4876   -1.7644    1.9661 H   0  0  0  0  0  0  0  0  0  0  0  0
    2.6501   -2.3545    0.7587 H   0  0  0  0  0  0  0  0  0  0  0  0
    3.3971    1.0398    1.1115 H   0  0  0  0  0  0  0  0  0  0  0  0
   -2.6355    2.2206   -0.2652 H   0  0  0  0  0  0  0  0  0  0  0  0
   -1.8873    1.7163    1.2660 H   0  0  0  0  0  0  0  0  0  0  0  0
   -3.6476    1.7686    1.1120 H   0  0  0  0  0  0  0  0  0  0  0  0
    1.9424    2.8828    0.1854 H   0  0  0  0  0  0  0  0  0  0  0  0
    1.3908    1.8439   -1.1322 H   0  0  0  0  0  0  0  0  0  0  0  0
    3.0889    2.3208   -1.0421 H   0  0  0  0  0  0  0  0  0  0  0  0
   -3.6916   -1.7592   -0.0132 H   0  0  0  0  0  0  0  0  0  0  0  0
   -4.5761   -0.4237    0.9168 H   0  0  0  0  0  0  0  0  0  0  0  0
  1  3  1  0  0  0  0
  1  6  1  0  0  0  0
  2  6  2  0  0  0  0
  3  5  1  0  0  0  0
  3 12  1  0  0  0  0
  3 13  1  0  0  0  0
  4  6  1  0  0  0  0
  4  7  1  0  0  0  0
  4  8  2  0  0  0  0
  5  9  1  0  0  0  0
  5 11  2  0  0  0  0
  7 14  1  0  0  0  0
  7 15  1  0  0  0  0
  7 16  1  0  0  0  0
  8 10  1  0  0  0  0
  8 17  1  0  0  0  0
  9 18  1  0  0  0  0
  9 19  1  0  0  0  0
  9 20  1  0  0  0  0
 10 21  1  0  0  0  0
 10 22  1  0  0  0  0
 10 23  1  0  0  0  0
 11 24  1  0  0  0  0
 11 25  1  0  0  0  0
M  END
>  <PUBCHEM_COMPOUND_CID>
6437425

>  <PUBCHEM_CONFORMER_RMSD>
0.6

>  <PUBCHEM_CONFORMER_DIVERSEORDER>
1
16
32
28
30
31
23
56
27
35
51
39
53
34
6
37
47
45
43
50
42
57
15
18
12
7
17
21
48
46
26
54
22
19
14
10
49
20
55
24
11
33
58
8
52
3
29
36
2
5
9
44
38
25
41
59
13
4
40

>  <PUBCHEM_MMFF94_PARTIAL_CHARGES>
14
1 -0.43
10 0.14
11 -0.3
17 0.15
2 -0.57
24 0.15
25 0.15
3 0.42
4 -0.12
5 -0.28
6 0.71
7 0.14
8 -0.29
9 0.14

>  <PUBCHEM_EFFECTIVE_ROTOR_COUNT>
4

>  <PUBCHEM_PHARMACOPHORE_FEATURES>
3
1 10 hydrophobe
1 2 acceptor
1 7 hydrophobe

>  <PUBCHEM_HEAVY_ATOM_COUNT>
11

>  <PUBCHEM_ATOM_DEF_STEREO_COUNT>
0

>  <PUBCHEM_ATOM_UDEF_STEREO_COUNT>
0

>  <PUBCHEM_BOND_DEF_STEREO_COUNT>
1

>  <PUBCHEM_BOND_UDEF_STEREO_COUNT>
0

>  <PUBCHEM_ISOTOPIC_ATOM_COUNT>
0

>  <PUBCHEM_COMPONENT_COUNT>
1

>  <PUBCHEM_CACTVS_TAUTO_COUNT>
1

>  <PUBCHEM_CONFORMER_ID>
00623A3100000001

>  <PUBCHEM_MMFF94_ENERGY>
15.9764

>  <PUBCHEM_FEATURE_SELFOVERLAP>
15.223

>  <PUBCHEM_SHAPE_FINGERPRINT>
11031198 65 17060348434813300223
12162725 195 18413386519063755161
12251169 10 18409158922308281562
12696612 119 18409168796417255908
12932764 1 18040723524044321935
14390081 3 15554439691634907379
15501101 241 17385718067736687714
15775835 57 18129942424243971544
17041 49 18191586350223273888
170605 34 18339930427723656108
19973954 147 18130235835098185017
20539784 86 18040432209192184112
20653091 64 18334293132976645376
21028194 46 17918275376208143458
21524375 3 18195250155328098740
21730867 7 17821725048370535578
230 275 16630521808727769706
3248919 1 18059572447710899573
81228 2 16125248009126023903

>  <PUBCHEM_SHAPE_MULTIPOLES>
214.64
5.69
1.67
1.13
3.93
0.65
0.22
0.38
-1.45
-0.96
-0.25
-0.4
-0.32
-0.61

>  <PUBCHEM_SHAPE_SELFOVERLAP>
406.116

>  <PUBCHEM_SHAPE_VOLUME>
133.9

>  <PUBCHEM_COORDINATE_TYPE>
2
5
10

$$$$
643820
 OpenBabel09242400493D

 29 28  0  0  0  0  0  0  0  0999 V2000
    2.2829    2.2939    0.1611 O   0  0  0  0  0  0  0  0  0  0  0  0
    0.7430   -1.2854   -1.1271 C   0  0  0  0  0  0  0  0  0  0  0  0
   -0.7822   -1.1707   -1.2483 C   0  0  0  0  0  0  0  0  0  0  0  0
    1.2660   -1.0169    0.2686 C   0  0  0  0  0  0  0  0  0  0  0  0
   -1.2911    0.1931   -0.8715 C   0  0  0  0  0  0  0  0  0  0  0  0
   -2.2352    0.5065    0.0359 C   0  0  0  0  0  0  0  0  0  0  0  0
    0.7839   -1.9745    1.3283 C   0  0  0  0  0  0  0  0  0  0  0  0
    2.1243   -0.0300    0.5926 C   0  0  0  0  0  0  0  0  0  0  0  0
   -2.6184    1.9439    0.2687 C   0  0  0  0  0  0  0  0  0  0  0  0
   -2.9751   -0.4780    0.8961 C   0  0  0  0  0  0  0  0  0  0  0  0
    2.7020    1.0181   -0.3043 C   0  0  0  0  0  0  0  0  0  0  0  0
    1.0407   -2.3019   -1.4160 H   0  0  0  0  0  0  0  0  0  0  0  0
    1.2030   -0.6309   -1.8727 H   0  0  0  0  0  0  0  0  0  0  0  0
   -1.2562   -1.9717   -0.6761 H   0  0  0  0  0  0  0  0  0  0  0  0
   -1.0570   -1.3522   -2.2952 H   0  0  0  0  0  0  0  0  0  0  0  0
   -0.8360    1.0083   -1.4336 H   0  0  0  0  0  0  0  0  0  0  0  0
    0.9671   -3.0084    1.0177 H   0  0  0  0  0  0  0  0  0  0  0  0
   -0.2865   -1.8492    1.5124 H   0  0  0  0  0  0  0  0  0  0  0  0
    1.2987   -1.8271    2.2840 H   0  0  0  0  0  0  0  0  0  0  0  0
    2.4412    0.0501    1.6319 H   0  0  0  0  0  0  0  0  0  0  0  0
   -2.4319    2.2213    1.3114 H   0  0  0  0  0  0  0  0  0  0  0  0
   -2.0522    2.6354   -0.3642 H   0  0  0  0  0  0  0  0  0  0  0  0
   -3.6818    2.0923    0.0538 H   0  0  0  0  0  0  0  0  0  0  0  0
   -4.0547   -0.3642    0.7505 H   0  0  0  0  0  0  0  0  0  0  0  0
   -2.7336   -1.5209    0.6856 H   0  0  0  0  0  0  0  0  0  0  0  0
   -2.7507   -0.2950    1.9522 H   0  0  0  0  0  0  0  0  0  0  0  0
    2.4198    0.9296   -1.3539 H   0  0  0  0  0  0  0  0  0  0  0  0
    3.7945    0.9811   -0.2512 H   0  0  0  0  0  0  0  0  0  0  0  0
    1.3165    2.3410    0.0598 H   0  0  0  0  0  0  0  0  0  0  0  0
  1 11  1  0  0  0  0
  1 29  1  0  0  0  0
  2  3  1  0  0  0  0
  2  4  1  0  0  0  0
  2 12  1  0  0  0  0
  2 13  1  0  0  0  0
  3  5  1  0  0  0  0
  3 14  1  0  0  0  0
  3 15  1  0  0  0  0
  4  7  1  0  0  0  0
  4  8  2  0  0  0  0
  5  6  2  0  0  0  0
  5 16  1  0  0  0  0
  6  9  1  0  0  0  0
  6 10  1  0  0  0  0
  7 17  1  0  0  0  0
  7 18  1  0  0  0  0
  7 19  1  0  0  0  0
  8 11  1  0  0  0  0
  8 20  1  0  0  0  0
  9 21  1  0  0  0  0
  9 22  1  0  0  0  0
  9 23  1  0  0  0  0
 10 24  1  0  0  0  0
 10 25  1  0  0  0  0
 10 26  1  0  0  0  0
 11 27  1  0  0  0  0
 11 28  1  0  0  0  0
M  END
>  <PUBCHEM_COMPOUND_CID>
643820

>  <PUBCHEM_CONFORMER_RMSD>
0.6

>  <PUBCHEM_CONFORMER_DIVERSEORDER>
4
19
78
81
73
36
17
53
43
71
76
25
9
8
52
80
7
16
59
55
79
24
56
64
47
65
57
77
6
44
20
13
23
69
75
18
35
3
70
39
14
29
33
67
63
66
49
54
62
34
61
48
72
38
15
40
74
21
5
68
46
2
37
60
22
28
31
32
58
1
27
11
45
26
30
50
41
10
42
12
51

>  <PUBCHEM_MMFF94_PARTIAL_CHARGES>
14
1 -0.68
10 0.14
11 0.42
16 0.15
2 0.14
20 0.15
29 0.4
3 0.14
4 -0.28
5 -0.29
6 -0.28
7 0.14
8 -0.29
9 0.14

>  <PUBCHEM_EFFECTIVE_ROTOR_COUNT>
4

>  <PUBCHEM_PHARMACOPHORE_FEATURES>
5
1 1 acceptor
1 1 donor
1 7 hydrophobe
3 6 9 10 hydrophobe
4 2 3 4 5 hydrophobe

>  <PUBCHEM_HEAVY_ATOM_COUNT>
11

>  <PUBCHEM_ATOM_DEF_STEREO_COUNT>
0

>  <PUBCHEM_ATOM_UDEF_STEREO_COUNT>
0

>  <PUBCHEM_BOND_DEF_STEREO_COUNT>
1

>  <PUBCHEM_BOND_UDEF_STEREO_COUNT>
0

>  <PUBCHEM_ISOTOPIC_ATOM_COUNT>
0

>  <PUBCHEM_COMPONENT_COUNT>
1

>  <PUBCHEM_CACTVS_TAUTO_COUNT>
1

>  <PUBCHEM_CONFORMER_ID>
0009D2EC00000004

>  <PUBCHEM_MMFF94_ENERGY>
8.2745

>  <PUBCHEM_FEATURE_SELFOVERLAP>
25.391

>  <PUBCHEM_SHAPE_FINGERPRINT>
10857977 72 16805042925839350103
12696612 119 18337669702809635276
12932764 1 17897174515916668071
13549 16 10519166792932009323
13618510 140 18272089344629925061
14251711 518 18342164587906456448
14648413 74 17983870990349618159
15775835 57 18271246130943653224
17834069 17 18260542359434927334
17841504 4 18043804277999850283
19837323 101 17630882914001045318
19973954 147 18198911301283080449
20379382 53 17896875448421960798
20539784 86 17970069950230377875
20653085 51 18057894726137318894
20828058 43 18409452496286791331
21028194 46 18273217520995404986
21061003 4 17318141971440568274
21130352 189 17622724219694751487
21524375 3 18339920532234953228
21922407 69 18190998214740124355
22802520 49 15698007378591097218
22959321 28 18412267267708199433
430814 3 18343014519137214054

>  <PUBCHEM_SHAPE_MULTIPOLES>
220.51
4.47
2.19
1.24
1.42
0.77
0.09
2.23
-0.94
-0.75
-0.31
0.06
-0.63
-0.19

>  <PUBCHEM_SHAPE_SELFOVERLAP>
406.969

>  <PUBCHEM_SHAPE_VOLUME>
140.1

>  <PUBCHEM_COORDINATE_TYPE>
2
5
10

$$$$
6713078
 OpenBabel09242400493D

 42 44  0  0  1  0  0  0  0  0999 V2000
   -2.3094    1.8786    0.8677 O   0  0  0  0  0  0  0  0  0  0  0  0
    0.8877    0.5172    0.0955 C   0  0  1  0  0  0  0  0  0  0  0  0
    0.7181   -0.8917   -0.5537 C   0  0  2  0  0  0  0  0  0  0  0  0
   -0.5748   -1.5099    0.0663 C   0  0  0  0  0  0  0  0  0  0  0  0
   -1.2244   -0.2889    0.8170 C   0  0  1  0  0  0  0  0  0  0  0  0
    0.0371    0.4136    1.3670 C   0  0  0  0  0  0  0  0  0  0  0  0
    2.4012    0.6640    0.3943 C   0  0  1  0  0  0  0  0  0  0  0  0
    0.2686    1.6131   -0.8045 C   0  0  0  0  0  0  0  0  0  0  0  0
   -2.0236    0.7681   -0.0093 C   0  0  2  0  0  0  0  0  0  0  0  0
    2.0631   -1.5872   -0.3384 C   0  0  0  0  0  0  0  0  0  0  0  0
    3.0557   -0.4366   -0.4485 C   0  0  0  0  0  0  0  0  0  0  0  0
   -1.2002    1.3407   -1.1766 C   0  0  0  0  0  0  0  0  0  0  0  0
   -0.2958   -2.6362    1.0932 C   0  0  0  0  0  0  0  0  0  0  0  0
   -1.4300   -2.1624   -1.0277 C   0  0  0  0  0  0  0  0  0  0  0  0
    3.0258    2.0285    0.1402 C   0  0  0  0  0  0  0  0  0  0  0  0
   -3.3991    0.2891   -0.4827 C   0  0  0  0  0  0  0  0  0  0  0  0
    0.5980   -0.7725   -1.6395 H   0  0  0  0  0  0  0  0  0  0  0  0
   -1.8434   -0.6232    1.6591 H   0  0  0  0  0  0  0  0  0  0  0  0
   -0.1551    1.3894    1.8244 H   0  0  0  0  0  0  0  0  0  0  0  0
    0.5216   -0.1938    2.1390 H   0  0  0  0  0  0  0  0  0  0  0  0
    2.5834    0.4208    1.4503 H   0  0  0  0  0  0  0  0  0  0  0  0
    0.8442    1.7196   -1.7320 H   0  0  0  0  0  0  0  0  0  0  0  0
    0.3191    2.5803   -0.2885 H   0  0  0  0  0  0  0  0  0  0  0  0
    2.2471   -2.3644   -1.0861 H   0  0  0  0  0  0  0  0  0  0  0  0
    2.1572   -2.0389    0.6534 H   0  0  0  0  0  0  0  0  0  0  0  0
    4.0443   -0.7130   -0.0691 H   0  0  0  0  0  0  0  0  0  0  0  0
    3.1638   -0.1239   -1.4942 H   0  0  0  0  0  0  0  0  0  0  0  0
   -1.6439    2.2800   -1.5313 H   0  0  0  0  0  0  0  0  0  0  0  0
   -1.2208    0.6551   -2.0300 H   0  0  0  0  0  0  0  0  0  0  0  0
   -1.2355   -3.0093    1.5182 H   0  0  0  0  0  0  0  0  0  0  0  0
    0.2083   -3.4884    0.6229 H   0  0  0  0  0  0  0  0  0  0  0  0
    0.3236   -2.3096    1.9328 H   0  0  0  0  0  0  0  0  0  0  0  0
   -0.9354   -3.0578   -1.4238 H   0  0  0  0  0  0  0  0  0  0  0  0
   -2.4044   -2.4731   -0.6359 H   0  0  0  0  0  0  0  0  0  0  0  0
   -1.5921   -1.5069   -1.8856 H   0  0  0  0  0  0  0  0  0  0  0  0
    2.9685    2.3175   -0.9138 H   0  0  0  0  0  0  0  0  0  0  0  0
    2.5325    2.8001    0.7398 H   0  0  0  0  0  0  0  0  0  0  0  0
    4.0854    2.0187    0.4181 H   0  0  0  0  0  0  0  0  0  0  0  0
   -3.3558   -0.4042   -1.3228 H   0  0  0  0  0  0  0  0  0  0  0  0
   -3.9447   -0.1930    0.3363 H   0  0  0  0  0  0  0  0  0  0  0  0
   -4.0133    1.1409   -0.8000 H   0  0  0  0  0  0  0  0  0  0  0  0
   -2.8161    1.5373    1.6246 H   0  0  0  0  0  0  0  0  0  0  0  0
  1 42  1  0  0  0  0
  2  3  1  0  0  0  0
  2  6  1  1  0  0  0
  2  7  1  0  0  0  0
  2  8  1  0  0  0  0
  3  4  1  0  0  0  0
  3 10  1  0  0  0  0
  3 17  1  6  0  0  0
  4  5  1  0  0  0  0
  4 13  1  0  0  0  0
  4 14  1  0  0  0  0
  5  6  1  0  0  0  0
  5  9  1  0  0  0  0
  5 18  1  1  0  0  0
  6 19  1  0  0  0  0
  6 20  1  0  0  0  0
  7 11  1  0  0  0  0
  7 15  1  0  0  0  0
  7 21  1  1  0  0  0
  8 12  1  0  0  0  0
  8 22  1  0  0  0  0
  8 23  1  0  0  0  0
  9  1  1  1  0  0  0
  9 12  1  0  0  0  0
  9 16  1  0  0  0  0
 10 11  1  0  0  0  0
 10 24  1  0  0  0  0
 10 25  1  0  0  0  0
 11 26  1  0  0  0  0
 11 27  1  0  0  0  0
 12 28  1  0  0  0  0
 12 29  1  0  0  0  0
 13 30  1  0  0  0  0
 13 31  1  0  0  0  0
 13 32  1  0  0  0  0
 14 33  1  0  0  0  0
 14 34  1  0  0  0  0
 14 35  1  0  0  0  0
 15 36  1  0  0  0  0
 15 37  1  0  0  0  0
 15 38  1  0  0  0  0
 16 39  1  0  0  0  0
 16 40  1  0  0  0  0
 16 41  1  0  0  0  0
M  END
>  <PUBCHEM_COMPOUND_CID>
6713078

>  <PUBCHEM_CONFORMER_RMSD>
0.6

>  <PUBCHEM_CONFORMER_DIVERSEORDER>
1

>  <PUBCHEM_MMFF94_PARTIAL_CHARGES>
3
1 -0.68
42 0.4
9 0.28

>  <PUBCHEM_EFFECTIVE_ROTOR_COUNT>
1.6

>  <PUBCHEM_PHARMACOPHORE_FEATURES>
5
1 1 acceptor
1 1 donor
3 4 13 14 hydrophobe
5 2 3 7 10 11 rings
8 2 3 4 5 6 8 9 12 rings

>  <PUBCHEM_HEAVY_ATOM_COUNT>
16

>  <PUBCHEM_ATOM_DEF_STEREO_COUNT>
5

>  <PUBCHEM_ATOM_UDEF_STEREO_COUNT>
0

>  <PUBCHEM_BOND_DEF_STEREO_COUNT>
0

>  <PUBCHEM_BOND_UDEF_STEREO_COUNT>
0

>  <PUBCHEM_ISOTOPIC_ATOM_COUNT>
0

>  <PUBCHEM_COMPONENT_COUNT>
1

>  <PUBCHEM_CACTVS_TAUTO_COUNT>
1

>  <PUBCHEM_CONFORMER_ID>
00666EF600000001

>  <PUBCHEM_MMFF94_ENERGY>
78.2009

>  <PUBCHEM_FEATURE_SELFOVERLAP>
25.423

>  <PUBCHEM_SHAPE_FINGERPRINT>
1 1 18192431866148860775
10863032 1 18271241724248828119
10948715 1 18410852161725381189
10967382 1 18410573993788904076
12138202 97 18261667189921274022
12423570 1 13272721126853899130
12491281 212 18341058462049955256
12524768 44 18334579031653684588
13024252 1 14129599117155472184
13140716 1 18335986389162131762
13172582 1 18260835873152357488
13380535 76 18411414055369866858
144361 1 18341606070411882747
14614273 12 18265890448606862788
14817 1 11327212594004809891
15309172 13 18334583399487848521
15490181 7 18190446191030042734
15557651 10 18117849797692533364
15775835 57 18265059032905823638
15881359 60 18118698835665623843
16945 1 18273496762441526062
18186145 218 18200314299268054469
20525323 117 18192989550709656564
21501502 16 18339917225210310118
21524375 3 18337954493432396659
21947302 44 18413667998345872016
22344851 262 18263363757801001508
22344851 341 18410845555955163738
22802520 49 18410864273628283406
2334 1 18265616661727132918
23388829 49 17690279739013838836
23402539 116 18119793944719961967
23419403 2 16052083275645738211
23559900 14 18201996664655967032
25 1 18124324808789054376
2748010 2 18262532453980173431
353137 74 18263908003367099063
5084963 1 18340763741383326785
528886 8 18267302023836575721
63268167 104 18268433425596537482
69090 78 18410849971170513525
81228 2 18190462864082718339

>  <PUBCHEM_SHAPE_MULTIPOLES>
323.4
4.1
2.52
1.14
0.88
0.85
-0.1
-1.44
0.38
-0.18
-0.04
-0.29
0.06
0.07

>  <PUBCHEM_SHAPE_SELFOVERLAP>
686.629

>  <PUBCHEM_SHAPE_VOLUME>
186.2

>  <PUBCHEM_COORDINATE_TYPE>
2
5
10

$$$$
689043
 OpenBabel09242400493D

 21 21  0  0  0  0  0  0  0  0999 V2000
    3.3190   -1.7785    0.1936 O   0  0  0  0  0  0  0  0  0  0  0  0
    4.0965    0.8849    0.0508 O   0  0  0  0  0  0  0  0  0  0  0  0
   -4.5229    0.9658    0.3589 O   0  0  0  0  0  0  0  0  0  0  0  0
   -4.0902   -1.1869   -0.2597 O   0  0  0  0  0  0  0  0  0  0  0  0
    0.0725   -0.1250   -0.1066 C   0  0  0  0  0  0  0  0  0  0  0  0
    1.0350   -1.1270    0.0177 C   0  0  0  0  0  0  0  0  0  0  0  0
    0.4630    1.2122   -0.1779 C   0  0  0  0  0  0  0  0  0  0  0  0
    2.3879   -0.7918    0.0705 C   0  0  0  0  0  0  0  0  0  0  0  0
    2.7784    0.5453   -0.0005 C   0  0  0  0  0  0  0  0  0  0  0  0
    1.8160    1.5473   -0.1248 C   0  0  0  0  0  0  0  0  0  0  0  0
   -1.3380   -0.4746   -0.1627 C   0  0  0  0  0  0  0  0  0  0  0  0
   -2.3077    0.3952    0.1047 C   0  0  0  0  0  0  0  0  0  0  0  0
   -3.7095   -0.0669    0.0361 C   0  0  0  0  0  0  0  0  0  0  0  0
    0.7426   -2.1734    0.0756 H   0  0  0  0  0  0  0  0  0  0  0  0
   -0.2423    2.0284   -0.3015 H   0  0  0  0  0  0  0  0  0  0  0  0
    2.1076    2.5925   -0.1870 H   0  0  0  0  0  0  0  0  0  0  0  0
   -1.5669   -1.5038   -0.4270 H   0  0  0  0  0  0  0  0  0  0  0  0
   -2.1467    1.4238    0.4033 H   0  0  0  0  0  0  0  0  0  0  0  0
    4.2003   -1.3667    0.2149 H   0  0  0  0  0  0  0  0  0  0  0  0
    4.1772    1.8522   -0.0117 H   0  0  0  0  0  0  0  0  0  0  0  0
   -5.4698    0.7109    0.3286 H   0  0  0  0  0  0  0  0  0  0  0  0
  1  8  1  0  0  0  0
  1 19  1  0  0  0  0
  2  9  1  0  0  0  0
  2 20  1  0  0  0  0
  3 13  1  0  0  0  0
  3 21  1  0  0  0  0
  4 13  2  0  0  0  0
  5  6  2  0  0  0  0
  5  7  1  0  0  0  0
  5 11  1  0  0  0  0
  6  8  1  0  0  0  0
  6 14  1  0  0  0  0
  7 10  2  0  0  0  0
  7 15  1  0  0  0  0
  8  9  2  0  0  0  0
  9 10  1  0  0  0  0
 10 16  1  0  0  0  0
 11 12  2  0  0  0  0
 11 17  1  0  0  0  0
 12 13  1  0  0  0  0
 12 18  1  0  0  0  0
M  END
>  <PUBCHEM_COMPOUND_CID>
689043

>  <PUBCHEM_CONFORMER_RMSD>
0.6

>  <PUBCHEM_CONFORMER_DIVERSEORDER>
1
2

>  <PUBCHEM_MMFF94_PARTIAL_CHARGES>
21
1 -0.53
10 -0.15
11 -0.18
12 -0.14
13 0.71
14 0.15
15 0.15
16 0.15
17 0.15
18 0.15
19 0.45
2 -0.53
20 0.45
21 0.5
3 -0.65
4 -0.57
5 0.03
6 -0.15
7 -0.15
8 0.08
9 0.08

>  <PUBCHEM_EFFECTIVE_ROTOR_COUNT>
2

>  <PUBCHEM_PHARMACOPHORE_FEATURES>
6
1 1 donor
1 2 donor
1 3 acceptor
1 4 acceptor
3 3 4 13 anion
6 5 6 7 8 9 10 rings

>  <PUBCHEM_HEAVY_ATOM_COUNT>
13

>  <PUBCHEM_ATOM_DEF_STEREO_COUNT>
0

>  <PUBCHEM_ATOM_UDEF_STEREO_COUNT>
0

>  <PUBCHEM_BOND_DEF_STEREO_COUNT>
1

>  <PUBCHEM_BOND_UDEF_STEREO_COUNT>
0

>  <PUBCHEM_ISOTOPIC_ATOM_COUNT>
0

>  <PUBCHEM_COMPONENT_COUNT>
1

>  <PUBCHEM_CACTVS_TAUTO_COUNT>
10

>  <PUBCHEM_CONFORMER_ID>
000A839300000001

>  <PUBCHEM_MMFF94_ENERGY>
32.6032

>  <PUBCHEM_FEATURE_SELFOVERLAP>
30.506

>  <PUBCHEM_SHAPE_FINGERPRINT>
10219947 1 18412265021176552998
10980938 120 18410011044025373774
11062470 55 18272089404869723785
11471102 20 18408881823882016612
12032990 46 18337392638943783110
12346645 6 18342740710956779662
12932764 1 17346587599786472741
13380535 76 18335702796809125162
14144814 61 18413108359780516017
14251717 144 18408600379001959303
14325111 11 18411419527205616253
14576447 43 18199175373047286799
15219456 202 18187636964628010213
15442244 35 18267587905397049569
15501101 241 18260266343403952092
15536298 74 18342739607007733550
18186145 218 17967811626635825739
200 152 18272642477099887159
20279233 1 17095241436537016995
20645477 70 18410571747737792927
20871998 22 18126004858715295510
21501925 9 18337099090987966450
22485316 2 18409164407287330639
23402539 116 17274819164432577013
23402655 69 18412259528330223461
2748010 2 18192697961406879940
449060 62 18411420635455053572
4990 188 18060151950489470156
5104073 3 18411419505725655379
581208 293 18334855047668835764
77779 3 18410857663947525075

>  <PUBCHEM_SHAPE_MULTIPOLES>
244.06
7.78
1.51
0.61
5.93
0.1
-0.01
0.08
0.47
-0.89
0
0.04
-0.01
-0.29

>  <PUBCHEM_SHAPE_SELFOVERLAP>
514.004

>  <PUBCHEM_SHAPE_VOLUME>
137.2

>  <PUBCHEM_COORDINATE_TYPE>
2
5
10

$$$$
68911
 OpenBabel09242400493D

 47 50  0  0  1  0  0  0  0  0999 V2000
   -0.8080    0.4536    1.6382 O   0  0  0  0  0  0  0  0  0  0  0  0
   -1.2635    1.3235   -1.0962 O   0  0  0  0  0  0  0  0  0  0  0  0
    0.9186    1.7326   -0.3951 O   0  0  0  0  0  0  0  0  0  0  0  0
   -1.3082    1.7616    1.2240 O   0  0  0  0  0  0  0  0  0  0  0  0
    2.8979    0.6554   -1.1041 O   0  0  0  0  0  0  0  0  0  0  0  0
   -0.2516   -0.2529    0.4973 C   0  0  2  0  0  0  0  0  0  0  0  0
   -1.2816   -1.3948    0.2180 C   0  0  2  0  0  0  0  0  0  0  0  0
    1.1087   -0.8231    0.9869 C   0  0  1  0  0  0  0  0  0  0  0  0
   -0.7038   -2.5183   -0.6827 C   0  0  1  0  0  0  0  0  0  0  0  0
   -0.0313    0.7041   -0.7019 C   0  0  1  0  0  0  0  0  0  0  0  0
    1.6342   -1.9415    0.0735 C   0  0  0  0  0  0  0  0  0  0  0  0
    2.1202    0.3363    1.2013 C   0  0  2  0  0  0  0  0  0  0  0  0
   -2.6361   -0.8929   -0.3347 C   0  0  0  0  0  0  0  0  0  0  0  0
    0.6090   -3.0513   -0.1023 C   0  0  0  0  0  0  0  0  0  0  0  0
   -2.0924    1.5831    0.0408 C   0  0  2  0  0  0  0  0  0  0  0  0
   -3.1257    0.4541    0.2057 C   0  0  0  0  0  0  0  0  0  0  0  0
    2.2106    1.2661   -0.0194 C   0  0  2  0  0  0  0  0  0  0  0  0
   -1.6759   -3.6899   -0.8681 C   0  0  0  0  0  0  0  0  0  0  0  0
    3.5013   -0.1433    1.6524 C   0  0  0  0  0  0  0  0  0  0  0  0
   -2.7980    2.9143   -0.2070 C   0  0  0  0  0  0  0  0  0  0  0  0
    2.9755    1.5233   -2.2265 C   0  0  0  0  0  0  0  0  0  0  0  0
   -1.5153   -1.8473    1.1947 H   0  0  0  0  0  0  0  0  0  0  0  0
    0.9459   -1.2733    1.9782 H   0  0  0  0  0  0  0  0  0  0  0  0
   -0.4962   -2.1039   -1.6780 H   0  0  0  0  0  0  0  0  0  0  0  0
    0.3291    0.1588   -1.5800 H   0  0  0  0  0  0  0  0  0  0  0  0
    2.5411   -2.3846    0.4993 H   0  0  0  0  0  0  0  0  0  0  0  0
    1.9033   -1.5574   -0.9147 H   0  0  0  0  0  0  0  0  0  0  0  0
    1.7138    0.9423    2.0242 H   0  0  0  0  0  0  0  0  0  0  0  0
   -3.4112   -1.6402   -0.1226 H   0  0  0  0  0  0  0  0  0  0  0  0
   -2.5809   -0.8251   -1.4295 H   0  0  0  0  0  0  0  0  0  0  0  0
    1.0273   -3.8182   -0.7658 H   0  0  0  0  0  0  0  0  0  0  0  0
    0.4248   -3.5370    0.8647 H   0  0  0  0  0  0  0  0  0  0  0  0
   -4.0370    0.6982   -0.3555 H   0  0  0  0  0  0  0  0  0  0  0  0
   -3.4235    0.3538    1.2565 H   0  0  0  0  0  0  0  0  0  0  0  0
    2.7866    2.1512    0.2792 H   0  0  0  0  0  0  0  0  0  0  0  0
   -1.9926   -4.0991    0.0972 H   0  0  0  0  0  0  0  0  0  0  0  0
   -2.5694   -3.3861   -1.4217 H   0  0  0  0  0  0  0  0  0  0  0  0
   -1.2060   -4.4980   -1.4394 H   0  0  0  0  0  0  0  0  0  0  0  0
    4.0319   -0.6862    0.8644 H   0  0  0  0  0  0  0  0  0  0  0  0
    4.1252    0.7105    1.9384 H   0  0  0  0  0  0  0  0  0  0  0  0
    3.4178   -0.7999    2.5246 H   0  0  0  0  0  0  0  0  0  0  0  0
   -2.0637    3.7219   -0.3117 H   0  0  0  0  0  0  0  0  0  0  0  0
   -3.3843    2.8922   -1.1319 H   0  0  0  0  0  0  0  0  0  0  0  0
   -3.4533    3.1792    0.6296 H   0  0  0  0  0  0  0  0  0  0  0  0
    3.6002    1.0411   -2.9837 H   0  0  0  0  0  0  0  0  0  0  0  0
    3.4416    2.4750   -1.9527 H   0  0  0  0  0  0  0  0  0  0  0  0
    1.9888    1.6966   -2.6653 H   0  0  0  0  0  0  0  0  0  0  0  0
  1  4  1  0  0  0  0
  2 10  1  0  0  0  0
  2 15  1  0  0  0  0
  3 10  1  0  0  0  0
  3 17  1  0  0  0  0
  4 15  1  0  0  0  0
  5 17  1  0  0  0  0
  5 21  1  0  0  0  0
  6  1  1  1  0  0  0
  6  7  1  0  0  0  0
  6  8  1  0  0  0  0
  6 10  1  0  0  0  0
  7  9  1  0  0  0  0
  7 13  1  0  0  0  0
  7 22  1  1  0  0  0
  8 11  1  0  0  0  0
  8 12  1  0  0  0  0
  8 23  1  1  0  0  0
  9 14  1  0  0  0  0
  9 18  1  0  0  0  0
  9 24  1  6  0  0  0
 10 25  1  6  0  0  0
 11 14  1  0  0  0  0
 11 26  1  0  0  0  0
 11 27  1  0  0  0  0
 12 17  1  0  0  0  0
 12 19  1  0  0  0  0
 12 28  1  1  0  0  0
 13 16  1  0  0  0  0
 13 29  1  0  0  0  0
 13 30  1  0  0  0  0
 14 31  1  0  0  0  0
 14 32  1  0  0  0  0
 15 16  1  0  0  0  0
 15 20  1  6  0  0  0
 16 33  1  0  0  0  0
 16 34  1  0  0  0  0
 17 35  1  1  0  0  0
 18 36  1  0  0  0  0
 18 37  1  0  0  0  0
 18 38  1  0  0  0  0
 19 39  1  0  0  0  0
 19 40  1  0  0  0  0
 19 41  1  0  0  0  0
 20 42  1  0  0  0  0
 20 43  1  0  0  0  0
 20 44  1  0  0  0  0
 21 45  1  0  0  0  0
 21 46  1  0  0  0  0
 21 47  1  0  0  0  0
M  END
>  <PUBCHEM_COMPOUND_CID>
68911

>  <PUBCHEM_CONFORMER_RMSD>
0.6

>  <PUBCHEM_CONFORMER_DIVERSEORDER>
1

>  <PUBCHEM_MMFF94_PARTIAL_CHARGES>
10
1 -0.28
10 0.56
15 0.56
17 0.56
2 -0.56
21 0.28
3 -0.56
4 -0.28
5 -0.56
6 0.28

>  <PUBCHEM_EFFECTIVE_ROTOR_COUNT>
3.2

>  <PUBCHEM_PHARMACOPHORE_FEATURES>
6
1 2 acceptor
1 3 acceptor
1 5 acceptor
6 3 6 8 10 12 17 rings
6 6 7 8 9 11 14 rings
9 1 2 4 6 7 10 13 15 16 rings

>  <PUBCHEM_HEAVY_ATOM_COUNT>
21

>  <PUBCHEM_ATOM_DEF_STEREO_COUNT>
8

>  <PUBCHEM_ATOM_UDEF_STEREO_COUNT>
0

>  <PUBCHEM_BOND_DEF_STEREO_COUNT>
0

>  <PUBCHEM_BOND_UDEF_STEREO_COUNT>
0

>  <PUBCHEM_ISOTOPIC_ATOM_COUNT>
0

>  <PUBCHEM_COMPONENT_COUNT>
1

>  <PUBCHEM_CACTVS_TAUTO_COUNT>
1

>  <PUBCHEM_CONFORMER_ID>
00010D2F00000001

>  <PUBCHEM_MMFF94_ENERGY>
79.5512

>  <PUBCHEM_FEATURE_SELFOVERLAP>
30.614

>  <PUBCHEM_SHAPE_FINGERPRINT>
104564 63 18122628515793015275
10863032 1 18055620738163860481
10948715 1 18128235818830332152
10967382 1 17404296300862737707
11370993 70 18126261091715202305
11578080 2 17395246598390492757
11640471 11 17895761832316672940
11680986 33 18123746457262459315
12035759 4 18117279378917786622
12202030 40 16843343429966768278
12423570 1 12471503580878945099
12553582 1 17762618790733297507
13009979 54 18044637923021083282
13140716 1 18122615321816785379
13172582 1 18045208345795106114
14181834 199 17766827343291972727
144361 1 18187940447090777338
14817 1 12427354611194681378
1601671 61 18124329443739755779
16752209 62 18411698820096302183
16945 1 18340200898983436019
1813 80 17459456768415682322
19868273 325 17835241520793831023
20905425 154 18272370901290259479
22112679 90 18122054579234032267
22149856 69 18125726687439406529
2334 1 18339637828781668323
23419403 2 15462346487240584507
23526113 38 17488766556929560652
23557571 272 17768814513465429520
23558518 356 18118401744636165657
2748010 2 16749298472168913197
350125 39 18268998591906194315
6992083 37 18044348618329151642
7364860 26 17767112116919422939
81228 2 17909557498814491594
90525 40 18335139795236520246

>  <PUBCHEM_SHAPE_MULTIPOLES>
402.82
4.59
3.57
1.47
1.31
2.39
0.21
-1.99
0.12
-2.12
1.07
1.28
-0.48
-1.06

>  <PUBCHEM_SHAPE_SELFOVERLAP>
856.469

>  <PUBCHEM_SHAPE_VOLUME>
216.2

>  <PUBCHEM_COORDINATE_TYPE>
2
5
10

$$$$
6989
 OpenBabel09242400493D

 25 25  0  0  0  0  0  0  0  0999 V2000
   -0.4292    2.3458    0.0002 O   0  0  0  0  0  0  0  0  0  0  0  0
   -2.1355    0.0547    0.0000 C   0  0  0  0  0  0  0  0  0  0  0  0
   -0.6457   -0.0413    0.0000 C   0  0  0  0  0  0  0  0  0  0  0  0
   -2.7641   -0.5675    1.2605 C   0  0  0  0  0  0  0  0  0  0  0  0
   -2.7643   -0.5674   -1.2605 C   0  0  0  0  0  0  0  0  0  0  0  0
    0.1430    1.1093   -0.0001 C   0  0  0  0  0  0  0  0  0  0  0  0
   -0.0435   -1.2995    0.0000 C   0  0  0  0  0  0  0  0  0  0  0  0
    2.1358   -0.2566    0.0000 C   0  0  0  0  0  0  0  0  0  0  0  0
    1.5336    1.0016    0.0000 C   0  0  0  0  0  0  0  0  0  0  0  0
    1.3473   -1.4072    0.0000 C   0  0  0  0  0  0  0  0  0  0  0  0
    3.6226   -0.3719   -0.0001 C   0  0  0  0  0  0  0  0  0  0  0  0
   -2.4660    1.0979    0.0133 H   0  0  0  0  0  0  0  0  0  0  0  0
   -2.5940   -1.6482    1.3137 H   0  0  0  0  0  0  0  0  0  0  0  0
   -3.8469   -0.4017    1.2722 H   0  0  0  0  0  0  0  0  0  0  0  0
   -2.3455   -0.1167    2.1671 H   0  0  0  0  0  0  0  0  0  0  0  0
   -2.3483   -0.1132   -2.1667 H   0  0  0  0  0  0  0  0  0  0  0  0
   -3.8475   -0.4038   -1.2701 H   0  0  0  0  0  0  0  0  0  0  0  0
   -2.5917   -1.6475   -1.3159 H   0  0  0  0  0  0  0  0  0  0  0  0
   -0.6363   -2.2100    0.0005 H   0  0  0  0  0  0  0  0  0  0  0  0
    2.1434    1.9020    0.0017 H   0  0  0  0  0  0  0  0  0  0  0  0
    1.8047   -2.3930    0.0019 H   0  0  0  0  0  0  0  0  0  0  0  0
    4.0835    0.4669   -0.5326 H   0  0  0  0  0  0  0  0  0  0  0  0
    3.9984   -0.3845    1.0278 H   0  0  0  0  0  0  0  0  0  0  0  0
    3.9485   -1.2884   -0.5038 H   0  0  0  0  0  0  0  0  0  0  0  0
   -1.1636    2.3514   -0.6359 H   0  0  0  0  0  0  0  0  0  0  0  0
  1  6  1  0  0  0  0
  1 25  1  0  0  0  0
  2  3  1  0  0  0  0
  2  4  1  0  0  0  0
  2  5  1  0  0  0  0
  2 12  1  0  0  0  0
  3  6  2  0  0  0  0
  3  7  1  0  0  0  0
  4 13  1  0  0  0  0
  4 14  1  0  0  0  0
  4 15  1  0  0  0  0
  5 16  1  0  0  0  0
  5 17  1  0  0  0  0
  5 18  1  0  0  0  0
  6  9  1  0  0  0  0
  7 10  2  0  0  0  0
  7 19  1  0  0  0  0
  8  9  2  0  0  0  0
  8 10  1  0  0  0  0
  8 11  1  0  0  0  0
  9 20  1  0  0  0  0
 10 21  1  0  0  0  0
 11 22  1  0  0  0  0
 11 23  1  0  0  0  0
 11 24  1  0  0  0  0
M  END
>  <PUBCHEM_COMPOUND_CID>
6989

>  <PUBCHEM_CONFORMER_RMSD>
0.4

>  <PUBCHEM_CONFORMER_DIVERSEORDER>
1
2

>  <PUBCHEM_MMFF94_PARTIAL_CHARGES>
13
1 -0.53
10 -0.15
11 0.14
19 0.15
2 0.14
20 0.15
21 0.15
25 0.45
3 -0.14
6 0.08
7 -0.15
8 -0.14
9 -0.15

>  <PUBCHEM_EFFECTIVE_ROTOR_COUNT>
1

>  <PUBCHEM_PHARMACOPHORE_FEATURES>
3
1 1 donor
3 2 4 5 hydrophobe
6 3 6 7 8 9 10 rings

>  <PUBCHEM_HEAVY_ATOM_COUNT>
11

>  <PUBCHEM_ATOM_DEF_STEREO_COUNT>
0

>  <PUBCHEM_ATOM_UDEF_STEREO_COUNT>
0

>  <PUBCHEM_BOND_DEF_STEREO_COUNT>
0

>  <PUBCHEM_BOND_UDEF_STEREO_COUNT>
0

>  <PUBCHEM_ISOTOPIC_ATOM_COUNT>
0

>  <PUBCHEM_COMPONENT_COUNT>
1

>  <PUBCHEM_CACTVS_TAUTO_COUNT>
9

>  <PUBCHEM_CONFORMER_ID>
00001B4D00000001

>  <PUBCHEM_MMFF94_ENERGY>
29.82

>  <PUBCHEM_FEATURE_SELFOVERLAP>
15.223

>  <PUBCHEM_SHAPE_FINGERPRINT>
10219947 1 18412548729573213290
10353120 184 18265071187800375974
10857977 72 18407758148815719290
11206711 2 18336547105980667460
12032990 46 18409176514737178842
12138202 97 17023168436557295847
12897270 3 18409725136536990198
14128692 85 17773299326663202335
14993402 34 18201150035479236559
16945 1 18410856559940632322
17844478 74 17894640270257902289
18534176 82 17095518496356042447
193761 8 17762336912097615650
20201158 50 18259701185911316835
21061003 4 18335713757697163265
21501502 16 18049719620798176626
23402539 116 18341321224402666742
23402655 69 18194663901288233901
23552423 10 18045506305167866222
2748010 2 18122347049664325326
29004967 10 18335426767813626411
5084963 1 18060128864533857939
528886 8 18411978053047505651
63268167 104 18270112551703577745

>  <PUBCHEM_SHAPE_MULTIPOLES>
220.51
4.55
1.6
0.9
0.87
0.7
0
-1.12
0
0.16
0
-0.82
-0.16
0

>  <PUBCHEM_SHAPE_SELFOVERLAP>
450.893

>  <PUBCHEM_SHAPE_VOLUME>
129.8

>  <PUBCHEM_COORDINATE_TYPE>
2
5
10

$$$$
7461
 OpenBabel09242400493D

 26 26  0  0  0  0  0  0  0  0999 V2000
   -2.2159    0.3610   -0.0016 C   0  0  0  0  0  0  0  0  0  0  0  0
   -0.7285    0.1654   -0.0003 C   0  0  0  0  0  0  0  0  0  0  0  0
    0.1065    1.4208   -0.0037 C   0  0  0  0  0  0  0  0  0  0  0  0
    1.3105   -1.2990    0.0044 C   0  0  0  0  0  0  0  0  0  0  0  0
   -0.1714   -1.0576    0.0032 C   0  0  0  0  0  0  0  0  0  0  0  0
    2.1454   -0.0436    0.0011 C   0  0  0  0  0  0  0  0  0  0  0  0
    1.5883    1.1792   -0.0025 C   0  0  0  0  0  0  0  0  0  0  0  0
   -2.8273   -0.2506   -1.2577 C   0  0  0  0  0  0  0  0  0  0  0  0
   -2.8405   -0.2364    1.2559 C   0  0  0  0  0  0  0  0  0  0  0  0
    3.6329   -0.2392    0.0013 C   0  0  0  0  0  0  0  0  0  0  0  0
   -2.4421    1.4351   -0.0088 H   0  0  0  0  0  0  0  0  0  0  0  0
   -0.1440    2.0204    0.8797 H   0  0  0  0  0  0  0  0  0  0  0  0
   -0.1433    2.0154   -0.8906 H   0  0  0  0  0  0  0  0  0  0  0  0
    1.5615   -1.8937    0.8908 H   0  0  0  0  0  0  0  0  0  0  0  0
    1.5620   -1.8987   -0.8784 H   0  0  0  0  0  0  0  0  0  0  0  0
   -0.7950   -1.9474    0.0062 H   0  0  0  0  0  0  0  0  0  0  0  0
    2.2221    2.0623   -0.0050 H   0  0  0  0  0  0  0  0  0  0  0  0
   -2.7293   -1.3414   -1.2846 H   0  0  0  0  0  0  0  0  0  0  0  0
   -2.3609    0.1544   -2.1630 H   0  0  0  0  0  0  0  0  0  0  0  0
   -3.8975   -0.0203   -1.3091 H   0  0  0  0  0  0  0  0  0  0  0  0
   -2.3832    0.1807    2.1603 H   0  0  0  0  0  0  0  0  0  0  0  0
   -2.7395   -1.3265    1.2967 H   0  0  0  0  0  0  0  0  0  0  0  0
   -3.9115   -0.0076    1.2932 H   0  0  0  0  0  0  0  0  0  0  0  0
    3.9422   -0.7965    0.8915 H   0  0  0  0  0  0  0  0  0  0  0  0
    4.1747    0.7124   -0.0015 H   0  0  0  0  0  0  0  0  0  0  0  0
    3.9417   -0.8015   -0.8859 H   0  0  0  0  0  0  0  0  0  0  0  0
  1  2  1  0  0  0  0
  1  8  1  0  0  0  0
  1  9  1  0  0  0  0
  1 11  1  0  0  0  0
  2  3  1  0  0  0  0
  2  5  2  0  0  0  0
  3  7  1  0  0  0  0
  3 12  1  0  0  0  0
  3 13  1  0  0  0  0
  4  5  1  0  0  0  0
  4  6  1  0  0  0  0
  4 14  1  0  0  0  0
  4 15  1  0  0  0  0
  5 16  1  0  0  0  0
  6  7  2  0  0  0  0
  6 10  1  0  0  0  0
  7 17  1  0  0  0  0
  8 18  1  0  0  0  0
  8 19  1  0  0  0  0
  8 20  1  0  0  0  0
  9 21  1  0  0  0  0
  9 22  1  0  0  0  0
  9 23  1  0  0  0  0
 10 24  1  0  0  0  0
 10 25  1  0  0  0  0
 10 26  1  0  0  0  0
M  END
>  <PUBCHEM_COMPOUND_CID>
7461

>  <PUBCHEM_CONFORMER_RMSD>
0.4

>  <PUBCHEM_CONFORMER_DIVERSEORDER>
1
2
3

>  <PUBCHEM_MMFF94_PARTIAL_CHARGES>
10
1 0.14
10 0.14
16 0.15
17 0.15
2 -0.28
3 0.28
4 0.28
5 -0.29
6 -0.28
7 -0.29

>  <PUBCHEM_EFFECTIVE_ROTOR_COUNT>
1.4

>  <PUBCHEM_PHARMACOPHORE_FEATURES>
2
3 1 8 9 hydrophobe
6 2 3 4 5 6 7 rings

>  <PUBCHEM_HEAVY_ATOM_COUNT>
10

>  <PUBCHEM_ATOM_DEF_STEREO_COUNT>
0

>  <PUBCHEM_ATOM_UDEF_STEREO_COUNT>
0

>  <PUBCHEM_BOND_DEF_STEREO_COUNT>
0

>  <PUBCHEM_BOND_UDEF_STEREO_COUNT>
0

>  <PUBCHEM_ISOTOPIC_ATOM_COUNT>
0

>  <PUBCHEM_COMPONENT_COUNT>
1

>  <PUBCHEM_CACTVS_TAUTO_COUNT>
1

>  <PUBCHEM_CONFORMER_ID>
00001D2500000001

>  <PUBCHEM_MMFF94_ENERGY>
3.4922

>  <PUBCHEM_FEATURE_SELFOVERLAP>
10.148

>  <PUBCHEM_SHAPE_FINGERPRINT>
10219947 1 18411700984886413174
10857977 72 18040720294039030937
12032990 46 18336555936533686842
12138202 97 16950548987808850903
124424 183 17676474030449835386
12897270 3 18408597050391489197
12932764 1 17917991654932011945
14128692 85 17845638374165918743
14325111 11 18410855486008917248
14993402 34 18201711864519903702
15310529 11 16660361489301374832
16945 1 18410573989662696262
17844478 74 17967543375815927225
19026448 4 16298105384908509086
19026448 5 16343703235918974874
193761 8 17689998259916162468
20201158 50 18259702276753758835
21040471 1 18194402414492894308
21293036 1 18335979839516288326
23235685 24 18410292514765119936
23402655 69 18194382421985011373
23552423 10 18046068155509367998
2748010 2 18121784095378864054
29004967 10 18334019371423588113
5084963 1 18130779092378400425
528886 8 18411978048683862619

>  <PUBCHEM_SHAPE_MULTIPOLES>
205.8
4.97
1.27
0.93
0.73
0.11
0
-0.47
0.01
0.4
0
-0.9
-0.08
-0.01

>  <PUBCHEM_SHAPE_SELFOVERLAP>
405.315

>  <PUBCHEM_SHAPE_VOLUME>
120.9

>  <PUBCHEM_COORDINATE_TYPE>
2
5
10

$$$$
7462
 OpenBabel09242400493D

 26 26  0  0  0  0  0  0  0  0999 V2000
    0.7199   -0.2501    0.0043 C   0  0  0  0  0  0  0  0  0  0  0  0
    2.2118   -0.3860    0.0574 C   0  0  0  0  0  0  0  0  0  0  0  0
    0.1754    1.1401   -0.2140 C   0  0  0  0  0  0  0  0  0  0  0  0
   -1.3314    1.3030    0.0614 C   0  0  0  0  0  0  0  0  0  0  0  0
   -2.1342    0.0267    0.0070 C   0  0  0  0  0  0  0  0  0  0  0  0
   -0.1004   -1.3071    0.1212 C   0  0  0  0  0  0  0  0  0  0  0  0
    2.8321    0.0794   -1.2561 C   0  0  0  0  0  0  0  0  0  0  0  0
    2.7848    0.3945    1.2372 C   0  0  0  0  0  0  0  0  0  0  0  0
   -1.5329   -1.1740    0.0294 C   0  0  0  0  0  0  0  0  0  0  0  0
   -3.6250    0.1734   -0.0478 C   0  0  0  0  0  0  0  0  0  0  0  0
    2.4800   -1.4416    0.1970 H   0  0  0  0  0  0  0  0  0  0  0  0
    0.6991    1.8785    0.4011 H   0  0  0  0  0  0  0  0  0  0  0  0
    0.3595    1.4204   -1.2593 H   0  0  0  0  0  0  0  0  0  0  0  0
   -1.7364    2.0278   -0.6559 H   0  0  0  0  0  0  0  0  0  0  0  0
   -1.4655    1.7438    1.0580 H   0  0  0  0  0  0  0  0  0  0  0  0
    0.2895   -2.3094    0.2670 H   0  0  0  0  0  0  0  0  0  0  0  0
    2.7139    1.1568   -1.4157 H   0  0  0  0  0  0  0  0  0  0  0  0
    2.3905   -0.4430   -2.1122 H   0  0  0  0  0  0  0  0  0  0  0  0
    3.9076   -0.1310   -1.2616 H   0  0  0  0  0  0  0  0  0  0  0  0
    2.2707    0.1417    2.1713 H   0  0  0  0  0  0  0  0  0  0  0  0
    2.7281    1.4787    1.0962 H   0  0  0  0  0  0  0  0  0  0  0  0
    3.8446    0.1479    1.3693 H   0  0  0  0  0  0  0  0  0  0  0  0
   -2.1103   -2.0927    0.0017 H   0  0  0  0  0  0  0  0  0  0  0  0
   -3.9839    0.7275    0.8256 H   0  0  0  0  0  0  0  0  0  0  0  0
   -4.1342   -0.7959   -0.0607 H   0  0  0  0  0  0  0  0  0  0  0  0
   -3.9202    0.7175   -0.9508 H   0  0  0  0  0  0  0  0  0  0  0  0
  1  2  1  0  0  0  0
  1  3  1  0  0  0  0
  1  6  2  0  0  0  0
  2  7  1  0  0  0  0
  2  8  1  0  0  0  0
  2 11  1  0  0  0  0
  3  4  1  0  0  0  0
  3 12  1  0  0  0  0
  3 13  1  0  0  0  0
  4  5  1  0  0  0  0
  4 14  1  0  0  0  0
  4 15  1  0  0  0  0
  5  9  2  0  0  0  0
  5 10  1  0  0  0  0
  6  9  1  0  0  0  0
  6 16  1  0  0  0  0
  7 17  1  0  0  0  0
  7 18  1  0  0  0  0
  7 19  1  0  0  0  0
  8 20  1  0  0  0  0
  8 21  1  0  0  0  0
  8 22  1  0  0  0  0
  9 23  1  0  0  0  0
 10 24  1  0  0  0  0
 10 25  1  0  0  0  0
 10 26  1  0  0  0  0
M  END
>  <PUBCHEM_COMPOUND_CID>
7462

>  <PUBCHEM_CONFORMER_RMSD>
0.4

>  <PUBCHEM_CONFORMER_DIVERSEORDER>
1
3
2

>  <PUBCHEM_MMFF94_PARTIAL_CHARGES>
10
1 -0.28
10 0.14
16 0.15
2 0.14
23 0.15
3 0.14
4 0.14
5 -0.28
6 -0.15
9 -0.15

>  <PUBCHEM_EFFECTIVE_ROTOR_COUNT>
1.4

>  <PUBCHEM_PHARMACOPHORE_FEATURES>
2
3 2 7 8 hydrophobe
6 1 3 4 5 6 9 rings

>  <PUBCHEM_HEAVY_ATOM_COUNT>
10

>  <PUBCHEM_ATOM_DEF_STEREO_COUNT>
0

>  <PUBCHEM_ATOM_UDEF_STEREO_COUNT>
0

>  <PUBCHEM_BOND_DEF_STEREO_COUNT>
0

>  <PUBCHEM_BOND_UDEF_STEREO_COUNT>
0

>  <PUBCHEM_ISOTOPIC_ATOM_COUNT>
0

>  <PUBCHEM_COMPONENT_COUNT>
1

>  <PUBCHEM_CACTVS_TAUTO_COUNT>
1

>  <PUBCHEM_CONFORMER_ID>
00001D2600000001

>  <PUBCHEM_MMFF94_ENERGY>
11.1056

>  <PUBCHEM_FEATURE_SELFOVERLAP>
10.148

>  <PUBCHEM_SHAPE_FINGERPRINT>
10857977 72 18410568517747799833
12897270 3 18341898476027399911
12932764 1 18060700567630726015
14325111 11 18410573955287185617
14390081 3 18201433662313462665
14993402 34 18114189639431979605
15310529 11 16298383573902955045
15775835 57 17530973513641965972
16945 1 18408886239314047123
19026448 5 16081088182164841843
193761 8 17689156033998756035
20201158 50 17846501422142921670
20645464 45 18060128860544819962
20645476 183 17604160314553720838
20653085 51 16702034032224143401
21040471 1 18337391526436269194
21293036 1 18335709355308147133
23235685 24 18408604751494652159
23402655 69 18194382413737961661
23552423 10 17825674622881095781
2748010 2 18122062271804854133
3248919 1 17821445755089693547
369184 2 18131343111710087306
5084963 1 18189618246111003946

>  <PUBCHEM_SHAPE_MULTIPOLES>
205.8
4.92
1.27
0.93
0.78
0.02
-0.01
-0.37
-0.06
0.36
0.03
-0.87
-0.08
0.1

>  <PUBCHEM_SHAPE_SELFOVERLAP>
406.456

>  <PUBCHEM_SHAPE_VOLUME>
122.5

>  <PUBCHEM_COORDINATE_TYPE>
2
5
10

$$$$
7463
 OpenBabel09242400493D

 24 24  0  0  0  0  0  0  0  0999 V2000
    2.1661   -0.3563    0.0001 C   0  0  0  0  0  0  0  0  0  0  0  0
    0.6826   -0.2034    0.0001 C   0  0  0  0  0  0  0  0  0  0  0  0
    2.8197    0.2415    1.2604 C   0  0  0  0  0  0  0  0  0  0  0  0
    2.8198    0.2407   -1.2605 C   0  0  0  0  0  0  0  0  0  0  0  0
    0.1127    1.0698   -0.0001 C   0  0  0  0  0  0  0  0  0  0  0  0
   -0.1350   -1.3334    0.0003 C   0  0  0  0  0  0  0  0  0  0  0  0
   -2.0925    0.0827   -0.0001 C   0  0  0  0  0  0  0  0  0  0  0  0
   -1.2748    1.2129   -0.0002 C   0  0  0  0  0  0  0  0  0  0  0  0
   -1.5226   -1.1904    0.0001 C   0  0  0  0  0  0  0  0  0  0  0  0
   -3.5759    0.2357    0.0000 C   0  0  0  0  0  0  0  0  0  0  0  0
    2.4122   -1.4270    0.0004 H   0  0  0  0  0  0  0  0  0  0  0  0
    2.6950    1.3286    1.3103 H   0  0  0  0  0  0  0  0  0  0  0  0
    3.8941    0.0285    1.2732 H   0  0  0  0  0  0  0  0  0  0  0  0
    2.3808   -0.1886    2.1675 H   0  0  0  0  0  0  0  0  0  0  0  0
    2.3808   -0.1898   -2.1674 H   0  0  0  0  0  0  0  0  0  0  0  0
    3.8942    0.0277   -1.2732 H   0  0  0  0  0  0  0  0  0  0  0  0
    2.6950    1.3278   -1.3110 H   0  0  0  0  0  0  0  0  0  0  0  0
    0.7304    1.9637   -0.0007 H   0  0  0  0  0  0  0  0  0  0  0  0
    0.2924   -2.3326    0.0000 H   0  0  0  0  0  0  0  0  0  0  0  0
   -1.7070    2.2100   -0.0022 H   0  0  0  0  0  0  0  0  0  0  0  0
   -2.1491   -2.0785   -0.0016 H   0  0  0  0  0  0  0  0  0  0  0  0
   -4.0595   -0.6000    0.5172 H   0  0  0  0  0  0  0  0  0  0  0  0
   -3.8787    1.1515    0.5193 H   0  0  0  0  0  0  0  0  0  0  0  0
   -3.9495    0.2754   -1.0280 H   0  0  0  0  0  0  0  0  0  0  0  0
  1  2  1  0  0  0  0
  1  3  1  0  0  0  0
  1  4  1  0  0  0  0
  1 11  1  0  0  0  0
  2  5  2  0  0  0  0
  2  6  1  0  0  0  0
  3 12  1  0  0  0  0
  3 13  1  0  0  0  0
  3 14  1  0  0  0  0
  4 15  1  0  0  0  0
  4 16  1  0  0  0  0
  4 17  1  0  0  0  0
  5  8  1  0  0  0  0
  5 18  1  0  0  0  0
  6  9  2  0  0  0  0
  6 19  1  0  0  0  0
  7  8  2  0  0  0  0
  7  9  1  0  0  0  0
  7 10  1  0  0  0  0
  8 20  1  0  0  0  0
  9 21  1  0  0  0  0
 10 22  1  0  0  0  0
 10 23  1  0  0  0  0
 10 24  1  0  0  0  0
M  END
>  <PUBCHEM_COMPOUND_CID>
7463

>  <PUBCHEM_CONFORMER_RMSD>
0.4

>  <PUBCHEM_CONFORMER_DIVERSEORDER>
1
2

>  <PUBCHEM_MMFF94_PARTIAL_CHARGES>
12
1 0.14
10 0.14
18 0.15
19 0.15
2 -0.14
20 0.15
21 0.15
5 -0.15
6 -0.15
7 -0.14
8 -0.15
9 -0.15

>  <PUBCHEM_EFFECTIVE_ROTOR_COUNT>
1

>  <PUBCHEM_PHARMACOPHORE_FEATURES>
2
3 1 3 4 hydrophobe
6 2 5 6 7 8 9 rings

>  <PUBCHEM_HEAVY_ATOM_COUNT>
10

>  <PUBCHEM_ATOM_DEF_STEREO_COUNT>
0

>  <PUBCHEM_ATOM_UDEF_STEREO_COUNT>
0

>  <PUBCHEM_BOND_DEF_STEREO_COUNT>
0

>  <PUBCHEM_BOND_UDEF_STEREO_COUNT>
0

>  <PUBCHEM_ISOTOPIC_ATOM_COUNT>
0

>  <PUBCHEM_COMPONENT_COUNT>
1

>  <PUBCHEM_CACTVS_TAUTO_COUNT>
1

>  <PUBCHEM_CONFORMER_ID>
00001D2700000001

>  <PUBCHEM_MMFF94_ENERGY>
23.3026

>  <PUBCHEM_FEATURE_SELFOVERLAP>
10.148

>  <PUBCHEM_SHAPE_FINGERPRINT>
10857977 72 18411975896910463681
12932764 1 17917992754438371470
14325111 11 18410856521095931649
14993402 34 18187372033907352893
15310529 11 16588022424434049565
15775835 57 17603876632190277420
16945 1 18410573989673252261
19026448 4 16343703231629295317
19026448 5 16298386859890500977
193761 8 17689999359427783751
20201158 50 17775570823254864166
20645464 45 17917419952130588642
20645476 183 17749682881845014110
20653085 51 16199883773283954411
21040471 1 18338797806076801222
21293036 1 18409737278504423197
23235685 24 18410012122062132645
23402655 69 18123451814823588757
23552423 10 17826236477586227581
2748010 2 18123185972693741941
29004967 10 16415761929289279970
369184 2 18201145603173057674
5084963 1 18262802835261878978

>  <PUBCHEM_SHAPE_MULTIPOLES>
205.8
4.84
1.23
0.93
0.52
0.11
0
-0.46
0
0.37
0
-0.9
-0.08
0

>  <PUBCHEM_SHAPE_SELFOVERLAP>
416.506

>  <PUBCHEM_SHAPE_VOLUME>
116.8

>  <PUBCHEM_COORDINATE_TYPE>
2
5
10

$$$$
91753446
 OpenBabel09242400493D

 42 43  0  0  1  0  0  0  0  0999 V2000
   -4.1880    1.3603   -0.5432 O   0  0  0  0  0  0  0  0  0  0  0  0
    1.2671   -0.5605   -0.9580 C   0  0  2  0  0  0  0  0  0  0  0  0
   -0.0438    0.1969   -0.5978 C   0  0  1  0  0  0  0  0  0  0  0  0
   -1.1248   -0.8036   -0.1133 C   0  0  1  0  0  0  0  0  0  0  0  0
    1.7531   -1.4877    0.1941 C   0  0  1  0  0  0  0  0  0  0  0  0
   -0.6277   -1.6649    1.0504 C   0  0  0  0  0  0  0  0  0  0  0  0
    0.6323   -2.4283    0.6596 C   0  0  0  0  0  0  0  0  0  0  0  0
    2.3218    0.4748   -1.3888 C   0  0  0  0  0  0  0  0  0  0  0  0
   -2.4610   -0.1428    0.2354 C   0  0  1  0  0  0  0  0  0  0  0  0
    0.2261    1.3577    0.3392 C   0  0  0  0  0  0  0  0  0  0  0  0
    2.6474    1.4722   -0.2743 C   0  0  0  0  0  0  0  0  0  0  0  0
    2.9748   -2.3201   -0.2088 C   0  0  0  0  0  0  0  0  0  0  0  0
    1.4337    1.9304    0.4946 C   0  0  0  0  0  0  0  0  0  0  0  0
   -2.9579    0.7473   -0.9067 C   0  0  0  0  0  0  0  0  0  0  0  0
   -3.5049   -1.2042    0.5744 C   0  0  0  0  0  0  0  0  0  0  0  0
    1.6518    3.0726    1.4432 C   0  0  0  0  0  0  0  0  0  0  0  0
    1.0544   -1.1961   -1.8297 H   0  0  0  0  0  0  0  0  0  0  0  0
   -0.3992    0.6416   -1.5370 H   0  0  0  0  0  0  0  0  0  0  0  0
   -1.3111   -1.4851   -0.9581 H   0  0  0  0  0  0  0  0  0  0  0  0
    2.0442   -0.8802    1.0599 H   0  0  0  0  0  0  0  0  0  0  0  0
   -1.3649   -2.4166    1.3462 H   0  0  0  0  0  0  0  0  0  0  0  0
   -0.4300   -1.0446    1.9331 H   0  0  0  0  0  0  0  0  0  0  0  0
    0.9741   -3.0168    1.5199 H   0  0  0  0  0  0  0  0  0  0  0  0
    0.3918   -3.1449   -0.1365 H   0  0  0  0  0  0  0  0  0  0  0  0
    1.9355    1.0284   -2.2558 H   0  0  0  0  0  0  0  0  0  0  0  0
    3.2408   -0.0092   -1.7354 H   0  0  0  0  0  0  0  0  0  0  0  0
   -2.3641    0.4793    1.1339 H   0  0  0  0  0  0  0  0  0  0  0  0
   -0.6113    1.7721    0.8919 H   0  0  0  0  0  0  0  0  0  0  0  0
    3.1505    2.3381   -0.7216 H   0  0  0  0  0  0  0  0  0  0  0  0
    3.3591    1.0205    0.4274 H   0  0  0  0  0  0  0  0  0  0  0  0
    2.7779   -2.9004   -1.1164 H   0  0  0  0  0  0  0  0  0  0  0  0
    3.2464   -3.0216    0.5876 H   0  0  0  0  0  0  0  0  0  0  0  0
    3.8485   -1.6871   -0.3889 H   0  0  0  0  0  0  0  0  0  0  0  0
   -2.2665    1.5630   -1.1281 H   0  0  0  0  0  0  0  0  0  0  0  0
   -3.1190    0.1638   -1.8196 H   0  0  0  0  0  0  0  0  0  0  0  0
   -3.3015   -1.6896    1.5334 H   0  0  0  0  0  0  0  0  0  0  0  0
   -4.5044   -0.7674    0.6755 H   0  0  0  0  0  0  0  0  0  0  0  0
   -3.5628   -1.9756   -0.2013 H   0  0  0  0  0  0  0  0  0  0  0  0
    2.4053    2.8046    2.1910 H   0  0  0  0  0  0  0  0  0  0  0  0
    0.7364    3.3483    1.9772 H   0  0  0  0  0  0  0  0  0  0  0  0
    2.0000    3.9568    0.8996 H   0  0  0  0  0  0  0  0  0  0  0  0
   -4.4717    1.9027   -1.2988 H   0  0  0  0  0  0  0  0  0  0  0  0
  1 14  1  0  0  0  0
  1 42  1  0  0  0  0
  2  3  1  0  0  0  0
  2  5  1  0  0  0  0
  2  8  1  0  0  0  0
  2 17  1  6  0  0  0
  3  4  1  0  0  0  0
  3 10  1  0  0  0  0
  3 18  1  6  0  0  0
  4  6  1  0  0  0  0
  4  9  1  0  0  0  0
  4 19  1  6  0  0  0
  5  7  1  0  0  0  0
  5 12  1  0  0  0  0
  5 20  1  1  0  0  0
  6  7  1  0  0  0  0
  6 21  1  0  0  0  0
  6 22  1  0  0  0  0
  7 23  1  0  0  0  0
  7 24  1  0  0  0  0
  8 11  1  0  0  0  0
  8 25  1  0  0  0  0
  8 26  1  0  0  0  0
  9 14  1  0  0  0  0
  9 15  1  0  0  0  0
  9 27  1  1  0  0  0
 10 13  2  0  0  0  0
 10 28  1  0  0  0  0
 11 13  1  0  0  0  0
 11 29  1  0  0  0  0
 11 30  1  0  0  0  0
 12 31  1  0  0  0  0
 12 32  1  0  0  0  0
 12 33  1  0  0  0  0
 13 16  1  0  0  0  0
 14 34  1  0  0  0  0
 14 35  1  0  0  0  0
 15 36  1  0  0  0  0
 15 37  1  0  0  0  0
 15 38  1  0  0  0  0
 16 39  1  0  0  0  0
 16 40  1  0  0  0  0
 16 41  1  0  0  0  0
M  END
>  <PUBCHEM_COMPOUND_CID>
91753446

>  <PUBCHEM_CONFORMER_RMSD>
0.6

>  <PUBCHEM_CONFORMER_DIVERSEORDER>
2
10
4
8
9
12
6
11
7
3
1
5

>  <PUBCHEM_MMFF94_PARTIAL_CHARGES>
9
1 -0.68
10 -0.29
11 0.14
13 -0.28
14 0.28
16 0.14
28 0.15
3 0.14
42 0.4

>  <PUBCHEM_EFFECTIVE_ROTOR_COUNT>
3.2

>  <PUBCHEM_PHARMACOPHORE_FEATURES>
5
1 1 acceptor
1 1 donor
1 15 hydrophobe
6 2 3 4 5 6 7 rings
6 2 3 8 10 11 13 rings

>  <PUBCHEM_HEAVY_ATOM_COUNT>
16

>  <PUBCHEM_ATOM_DEF_STEREO_COUNT>
4

>  <PUBCHEM_ATOM_UDEF_STEREO_COUNT>
1

>  <PUBCHEM_BOND_DEF_STEREO_COUNT>
0

>  <PUBCHEM_BOND_UDEF_STEREO_COUNT>
0

>  <PUBCHEM_ISOTOPIC_ATOM_COUNT>
0

>  <PUBCHEM_COMPONENT_COUNT>
1

>  <PUBCHEM_CACTVS_TAUTO_COUNT>
1

>  <PUBCHEM_CONFORMER_ID>
05780BE600000002

>  <PUBCHEM_MMFF94_ENERGY>
31.3484

>  <PUBCHEM_FEATURE_SELFOVERLAP>
25.444

>  <PUBCHEM_SHAPE_FINGERPRINT>
108231 29 18337675204895149002
1100329 8 17763749789093069608
12654215 9 18411135818550792076
12716301 132 17685502335474594960
12932764 1 18341339984703797071
13132413 78 17832982750227294453
13134695 92 18199455593803460276
13294875 104 18340471331557232248
13464514 151 18412267237490752796
13571099 52 18056190512857537056
14617773 55 17913225177815923424
14761567 1 18120124795025628102
14817 1 17251174403358658290
15219456 202 18334014999431704287
15490181 7 18125157392515534854
15852999 172 17681804608734487934
16945 1 18202286934876276252
18186145 218 18271258191459356905
18410436 195 18195800774271774282
19049666 15 18336271214424297137
20511035 2 18188217605773626854
20600515 1 17756401804223608450
20645477 70 18341890771494556695
21029758 11 18267584607294890654
21041028 32 18198637540072986561
21501502 16 18260548922556626583
21524375 3 17483107533273339200
21947302 44 18342736368402101193
220403 375 17980750859701715418
22112679 90 17771360681288712152
22892500 29 18339631279009445781
2334 1 18261397779697829167
23402539 116 16974476842840611374
23419403 2 17176817373829540806
23493267 7 16951141675825471592
23526113 38 17983606223027784716
25 1 18340212976273450724
2748010 2 18259985998267462103
2803657 2 17980210681501731089
305870 269 18266165300569981648
3286 77 18408884040454692415
495365 180 18263904606448647837
53812653 166 18266188416189431250
57483677 104 18410291453729038195
5895379 119 16843611453259376281
63268167 104 18411991247181634243
6438718 38 17270596846693303789
7364860 26 18412260627462127286
74978 22 18343018870308427927
81228 2 17547576981045711250
84936 182 18412260640478976137

>  <PUBCHEM_SHAPE_MULTIPOLES>
323.4
5.22
3.02
1.17
5.03
0.32
0
0.81
0.83
-2.16
-1.22
-0.27
0.31
1.01

>  <PUBCHEM_SHAPE_SELFOVERLAP>
652.759

>  <PUBCHEM_SHAPE_VOLUME>
187.9

>  <PUBCHEM_COORDINATE_TYPE>
2
5
10

$$$$
93009
 OpenBabel09242400493D

 34 35  0  0  1  0  0  0  0  0999 V2000
   -1.6591    0.5736   -0.1741 O   0  0  0  0  0  0  0  0  0  0  0  0
   -2.9550   -1.3336   -0.3152 O   0  0  0  0  0  0  0  0  0  0  0  0
    0.8004    0.6872   -0.4352 C   0  0  1  0  0  0  0  0  0  0  0  0
    1.9104   -0.3863   -0.2211 C   0  0  0  0  0  0  0  0  0  0  0  0
    1.2119   -0.9076    1.0632 C   0  0  2  0  0  0  0  0  0  0  0  0
   -0.4959   -0.1774   -0.4755 C   0  0  1  0  0  0  0  0  0  0  0  0
    0.8111    1.4649    0.9114 C   0  0  0  0  0  0  0  0  0  0  0  0
   -0.2199   -1.2555    0.5891 C   0  0  0  0  0  0  0  0  0  0  0  0
    1.0832    0.3565    1.9424 C   0  0  0  0  0  0  0  0  0  0  0  0
    0.9447    1.6020   -1.6368 C   0  0  0  0  0  0  0  0  0  0  0  0
    2.0381   -1.4403   -1.3398 C   0  0  0  0  0  0  0  0  0  0  0  0
    3.3327    0.1607    0.0131 C   0  0  0  0  0  0  0  0  0  0  0  0
   -2.8322   -0.1313   -0.1243 C   0  0  0  0  0  0  0  0  0  0  0  0
   -3.9704    0.7871    0.2031 C   0  0  0  0  0  0  0  0  0  0  0  0
    1.7111   -1.7368    1.5700 H   0  0  0  0  0  0  0  0  0  0  0  0
   -0.6286   -0.6270   -1.4674 H   0  0  0  0  0  0  0  0  0  0  0  0
   -0.1293    1.9857    1.1180 H   0  0  0  0  0  0  0  0  0  0  0  0
    1.6027    2.2221    0.9413 H   0  0  0  0  0  0  0  0  0  0  0  0
   -0.2398   -2.2543    0.1396 H   0  0  0  0  0  0  0  0  0  0  0  0
   -0.9287   -1.2538    1.4237 H   0  0  0  0  0  0  0  0  0  0  0  0
    2.0074    0.5568    2.4946 H   0  0  0  0  0  0  0  0  0  0  0  0
    0.2742    0.2773    2.6761 H   0  0  0  0  0  0  0  0  0  0  0  0
    1.8771    2.1740   -1.5926 H   0  0  0  0  0  0  0  0  0  0  0  0
    0.9457    1.0333   -2.5723 H   0  0  0  0  0  0  0  0  0  0  0  0
    0.1176    2.3184   -1.6839 H   0  0  0  0  0  0  0  0  0  0  0  0
    2.7245   -2.2380   -1.0326 H   0  0  0  0  0  0  0  0  0  0  0  0
    1.1024   -1.9279   -1.6195 H   0  0  0  0  0  0  0  0  0  0  0  0
    2.4427   -0.9875   -2.2522 H   0  0  0  0  0  0  0  0  0  0  0  0
    3.3983    0.9454    0.7695 H   0  0  0  0  0  0  0  0  0  0  0  0
    4.0020   -0.6450    0.3364 H   0  0  0  0  0  0  0  0  0  0  0  0
    3.7417    0.5820   -0.9123 H   0  0  0  0  0  0  0  0  0  0  0  0
   -4.0642    1.5512   -0.5727 H   0  0  0  0  0  0  0  0  0  0  0  0
   -3.8041    1.2480    1.1799 H   0  0  0  0  0  0  0  0  0  0  0  0
   -4.9005    0.2129    0.2420 H   0  0  0  0  0  0  0  0  0  0  0  0
  1  6  1  0  0  0  0
  1 13  1  0  0  0  0
  2 13  2  0  0  0  0
  3  4  1  0  0  0  0
  3  6  1  0  0  0  0
  3  7  1  0  0  0  0
  3 10  1  6  0  0  0
  4  5  1  0  0  0  0
  4 11  1  0  0  0  0
  4 12  1  0  0  0  0
  5  8  1  0  0  0  0
  5  9  1  0  0  0  0
  5 15  1  1  0  0  0
  6  8  1  0  0  0  0
  6 16  1  6  0  0  0
  7  9  1  0  0  0  0
  7 17  1  0  0  0  0
  7 18  1  0  0  0  0
  8 19  1  0  0  0  0
  8 20  1  0  0  0  0
  9 21  1  0  0  0  0
  9 22  1  0  0  0  0
 10 23  1  0  0  0  0
 10 24  1  0  0  0  0
 10 25  1  0  0  0  0
 11 26  1  0  0  0  0
 11 27  1  0  0  0  0
 11 28  1  0  0  0  0
 12 29  1  0  0  0  0
 12 30  1  0  0  0  0
 12 31  1  0  0  0  0
 13 14  1  0  0  0  0
 14 32  1  0  0  0  0
 14 33  1  0  0  0  0
 14 34  1  0  0  0  0
M  END
>  <PUBCHEM_COMPOUND_CID>
93009

>  <PUBCHEM_CONFORMER_RMSD>
0.6

>  <PUBCHEM_CONFORMER_DIVERSEORDER>
1
2

>  <PUBCHEM_MMFF94_PARTIAL_CHARGES>
5
1 -0.43
13 0.66
14 0.06
2 -0.57
6 0.28

>  <PUBCHEM_EFFECTIVE_ROTOR_COUNT>
3

>  <PUBCHEM_PHARMACOPHORE_FEATURES>
3
1 2 acceptor
3 4 11 12 hydrophobe
7 3 4 5 6 7 8 9 rings

>  <PUBCHEM_HEAVY_ATOM_COUNT>
14

>  <PUBCHEM_ATOM_DEF_STEREO_COUNT>
3

>  <PUBCHEM_ATOM_UDEF_STEREO_COUNT>
0

>  <PUBCHEM_BOND_DEF_STEREO_COUNT>
0

>  <PUBCHEM_BOND_UDEF_STEREO_COUNT>
0

>  <PUBCHEM_ISOTOPIC_ATOM_COUNT>
0

>  <PUBCHEM_COMPONENT_COUNT>
1

>  <PUBCHEM_CACTVS_TAUTO_COUNT>
1

>  <PUBCHEM_CONFORMER_ID>
00016B5100000001

>  <PUBCHEM_MMFF94_ENERGY>
59.0842

>  <PUBCHEM_FEATURE_SELFOVERLAP>
15.223

>  <PUBCHEM_SHAPE_FINGERPRINT>
10353120 184 17822303335599494981
12326174 3 15213282102586725962
12423570 1 13819526938539527656
12500047 106 17989199339904660727
12725867 57 17489306347807424488
12932764 1 16732977648516282319
13024252 1 16089597191183842286
13134695 92 16343414012410117912
13380536 305 17822303404276708597
13571099 22 17274825709973084247
15775835 57 18259701190443407611
16945 1 18272098192647007552
20233049 118 18270962328337404369
21524375 3 17319019729190047268
22344851 12 15841548583285290398
22892500 29 17131536272288627273
23402539 116 18260541217422039110
23419403 2 17697569145035216730
23559900 14 18273217491748408870
2748010 2 17607223399266182478
3060560 45 17967809449129858303
5084963 1 18408884070429409205
528886 8 18113338617558681146
5337951 7 18060414746368554098
68250623 7 17390237266774785706

>  <PUBCHEM_SHAPE_MULTIPOLES>
276.37
4.77
1.51
1.43
4.82
0.13
-0.25
-0.09
0.38
-0.18
0.29
-0.83
0.14
-0.02

>  <PUBCHEM_SHAPE_SELFOVERLAP>
578.817

>  <PUBCHEM_SHAPE_VOLUME>
162.6

>  <PUBCHEM_COORDINATE_TYPE>
2
5
10

$$$$
